15
C7H8
C   -1.2231    0.9609   -0.1808
C   -1.5032   -0.3235   -0.3292
C   -0.6708   -1.3827    0.2127
C    0.6586   -1.3884    0.2127
C    1.5001   -0.3366   -0.3295
C    1.2315    0.9503   -0.1810
C    0.0064    1.4192    0.5518
H   -1.8920    1.6979   -0.6002
H   -2.3921   -0.5968   -0.8783
H   -1.1715   -2.2334    0.6508
H    1.1519   -2.2431    0.6513
H    2.3862   -0.6178   -0.8791
H    1.9092    1.6814   -0.5965
H    0.0111    2.5078    0.6078
H    0.0047    1.0038    1.5596
