24
glucose
O         -3.97560       -0.26650       -0.40090
C         -3.12160       -0.73930        0.31010
C         -1.92810        0.09040        0.70800
H         -1.89500        0.18210        1.79360
O         -2.03500        1.38990        0.12320
C         -0.64840       -0.58740        0.21410
H         -0.52080       -1.54060        0.72710
O         -0.74160       -0.81290       -1.19390
C          0.55230        0.31440        0.50780
H          0.67650        0.41430        1.58600
O          0.33170        1.60370       -0.06780
C          1.81460       -0.30440       -0.09590
H          1.69040       -0.40430       -1.17420
O          2.03520       -1.59360        0.47960
C          3.01520        0.59740        0.19770
O          4.17190        0.08090       -0.46370
H         -3.21530       -1.75520        0.66440
H         -2.06950        1.38470       -0.84320
H         -0.85650       -0.00620       -1.71470
H          0.21240        1.59080       -1.02730
H          2.15450       -1.58080        1.43920
H          2.80970        1.60500       -0.16350
H          3.19380        0.62610        1.27260
H          4.97270        0.60390       -0.32140
