49
C20H25N3O
C   -1.0095    1.5814   -0.1867
C    1.7503    0.6599    0.1849
C   -1.6659   -2.1665   -0.7831
C   -4.6163    0.9555    0.7018
C   -4.1005   -2.4313   -0.5412
C   -2.8397   -2.9113   -0.8762
C    5.0046   -1.2697   -0.3876
C    3.6604   -0.7807    1.7082
C   -0.1723    3.8391   -0.3195
C    6.1963   -0.3102   -0.3820
C    2.8542   -2.0519    1.9820
H   -6.1067   -0.4872    0.3939
O    3.2025    0.2988   -1.6400
C   -2.1827    1.9288    0.7401
C    1.3756    1.9878   -0.4833
C    2.9889    0.0972   -0.4633
C   -1.7164   -0.8669   -0.3331
C   -3.2995    0.9412    0.5245
C    0.6046   -0.2999    0.0077
N    0.1165    2.4611    0.0994
C   -0.6357    0.1231   -0.1595
C   -4.1877   -1.1192   -0.0776
N    3.8594   -0.6300    0.2647
N   -5.1629   -0.2681    0.3468
C   -2.9983   -0.3910    0.0135
H   -1.3395    1.8078   -1.2006
H   -0.7204   -2.6072   -1.0626
H   -1.8522    1.8830    1.7778
H   -2.5382    2.9344    0.5155
H   -5.1803    1.7998    1.0699
H   -4.9795   -3.0516   -0.6356
H    0.8016   -1.3617    0.0170
H   -2.7653   -3.9279   -1.2331
H    1.9329    0.8215    1.2473
H    2.1609    2.7222   -0.3048
H    1.2489    1.8356   -1.5552
H   -1.0474    4.2061    0.2167
H    0.6845    4.4744   -0.0946
H   -0.3681    3.8595   -1.3916
H    4.7440   -1.5194   -1.4162
H    5.2682   -2.1796    0.1515
H    3.1181    0.0833    2.0924
H    4.6290   -0.8511    2.2031
H    5.9327    0.5997   -0.9212
H    6.4568   -0.0605    0.6465
H    7.0483   -0.7862   -0.8673
H    1.8889   -1.9850    1.4802
H    3.4004   -2.9167    1.6053
H    2.6990   -2.1595    3.0555
