11
C3H6O2
C    0.4824    0.0264   -0.0019
C   -0.7573   -0.8305   -0.0013
C   -1.9971    0.0660    0.0014
O    0.3843    1.2307   -0.0003
O    1.6954   -0.5481    0.0014
H   -0.7651   -1.4587   -0.8921
H   -0.7628   -1.4609    0.8879
H   -1.9892    0.6942    0.8921
H   -1.9915    0.6964   -0.8878
H   -2.8937   -0.5538    0.0018
H    2.4610    0.0426    0.0009
