54
C21H28O5
C    0.7692   -1.3326   -0.4616
C   -0.5322   -1.0726    0.2750
C    1.6768   -0.0929   -0.2398
C   -1.2081    0.1337   -0.3961
C    3.0491   -0.5773   -0.6967
C   -2.5014    0.4617    0.3559
C   -0.2996    1.3597   -0.3965
C    4.6868    1.4261   -0.3536
C    1.7199    0.2590    1.2486
C   -2.1225    0.8512    1.7862
H    4.0817   -0.6059   -2.4386
H    0.4625    2.5746    1.0334
H    6.0969    2.7089    0.3298
O    4.5600   -0.4203    1.1038
O   -6.4401    0.4308   -0.8129
C    1.6407   -2.4604    0.1016
C   -1.4436   -2.2968    0.1673
C    1.0687    1.0531   -1.0257
C    3.0568   -2.1025   -0.4263
C   -2.7369   -2.0450    0.9489
O    3.2262   -0.3190   -2.0910
O   -0.1059    1.7967    0.9502
O    5.6960    1.8597    0.5605
C    4.1338    0.0998    0.1007
C   -5.2652    0.4313   -0.4960
C   -3.1810    1.6395   -0.2542
C   -4.6321   -0.7806    0.0468
C   -4.4451    1.6452   -0.6467
C   -3.3621   -0.7646    0.4275
H    0.5794   -1.4801   -1.5248
H   -0.3239   -0.8433    1.3201
H   -1.4479   -0.1183   -1.4291
H    1.6225   -2.4543    1.1914
H    1.3179   -3.4270   -0.2852
H   -1.6824   -2.4805   -0.8802
H   -0.9332   -3.1667    0.5807
H    1.7122    1.9305   -0.9608
H    0.9409    0.7616   -2.0683
H    2.2994   -0.4937    1.7832
H    2.1862    1.2358    1.3776
H    0.7050    0.2856    1.6452
H    3.2603   -2.6452   -1.3494
H    3.8086   -2.3455    0.3247
H   -0.7795    2.1576   -0.9633
H   -3.4246   -2.8774    0.8003
H   -2.5108   -1.9386    2.0099
H   -2.6064    2.5448   -0.3839
H   -1.7673    1.8816    1.8002
H   -2.9963    0.7593    2.4313
H   -1.3341    0.1902    2.1460
H    3.8841    2.1629   -0.3850
H    5.1196    1.3178   -1.3481
H   -5.2067   -1.6907    0.1363
H   -4.8742    2.5381   -1.0768
