19
C5H11NO2
N   -0.2014    1.9079    0.2641
C   -0.1193    0.4539    0.4572
H   -0.2839    0.2172    1.5083
C   -1.1879   -0.2347   -0.3942
C   -1.1024   -1.7490   -0.1930
C   -2.5730    0.2585    0.0289
C    1.2450   -0.0319    0.0405
O    1.9284    0.6424   -0.6930
O    1.7010   -1.2138    0.4843
H    0.4511    2.3897    0.8642
H   -0.0521    2.1532   -0.7032
H   -1.0233    0.0021   -1.4453
H   -1.2670   -1.9858    0.8581
H   -1.8637   -2.2397   -0.7995
H   -0.1156   -2.1005   -0.4944
H   -2.6339    1.3374   -0.1144
H   -3.3343   -0.2321   -0.5776
H   -2.7377    0.0218    1.0800
H    2.5818   -1.4831    0.1899
