68
C22H46
C   13.1190   -0.3768   -0.0000
C   11.8654    0.5003    0.0000
C   10.6206   -0.3892   -0.0000
C    9.3670    0.4880    0.0000
C    8.1221   -0.4015   -0.0000
C    6.8686    0.4756    0.0000
C    5.6237   -0.4139   -0.0000
C    4.3701    0.4633    0.0000
C    3.1252   -0.4262   -0.0000
C    1.8717    0.4509    0.0000
C    0.6268   -0.4386    0.0000
C   -0.6268    0.4386    0.0000
C   -1.8717   -0.4509    0.0000
C   -3.1252    0.4262   -0.0000
C   -4.3701   -0.4633    0.0000
C   -5.6237    0.4139   -0.0000
C   -6.8686   -0.4756    0.0000
C   -8.1221    0.4015   -0.0000
C   -9.3670   -0.4880    0.0000
C  -10.6206    0.3892   -0.0000
C  -11.8654   -0.5003    0.0000
C  -13.1190    0.3768   -0.0000
H   14.0059    0.2569    0.0000
H   13.1222   -1.0061    0.8900
H   13.1222   -1.0061   -0.8900
H   11.8623    1.1296    0.8900
H   11.8623    1.1296   -0.8900
H   10.6237   -1.0185   -0.8900
H   10.6237   -1.0185    0.8900
H    9.3639    1.1173    0.8900
H    9.3639    1.1173   -0.8900
H    8.1253   -1.0308   -0.8900
H    8.1253   -1.0308    0.8900
H    6.8654    1.1049    0.8900
H    6.8654    1.1049   -0.8900
H    5.6268   -1.0432   -0.8900
H    5.6268   -1.0432    0.8900
H    4.3670    1.0926    0.8900
H    4.3670    1.0926   -0.8900
H    3.1284   -1.0555   -0.8900
H    3.1284   -1.0555    0.8900
H    1.8685    1.0802    0.8900
H    1.8685    1.0802   -0.8900
H    0.6299   -1.0679   -0.8900
H    0.6299   -1.0679    0.8900
H   -0.6299    1.0679    0.8900
H   -0.6299    1.0679   -0.8900
H   -1.8685   -1.0802   -0.8900
H   -1.8685   -1.0802    0.8900
H   -3.1284    1.0555    0.8900
H   -3.1284    1.0555   -0.8900
H   -4.3670   -1.0926   -0.8900
H   -4.3670   -1.0926    0.8900
H   -5.6268    1.0432    0.8900
H   -5.6268    1.0432   -0.8900
H   -6.8654   -1.1049   -0.8900
H   -6.8654   -1.1049    0.8900
H   -8.1253    1.0308    0.8900
H   -8.1253    1.0308   -0.8900
H   -9.3639   -1.1173   -0.8900
H   -9.3639   -1.1173    0.8900
H  -10.6237    1.0185    0.8900
H  -10.6237    1.0185   -0.8900
H  -11.8623   -1.1296   -0.8900
H  -11.8623   -1.1296    0.8900
H  -14.0059   -0.2569    0.0000
H  -13.1222    1.0061    0.8900
H  -13.1222    1.0061   -0.8900
