158
C52H106
C   31.8560   -0.4133   -0.0000
C   30.6060    0.4689    0.0000
C   29.3575   -0.4155   -0.0000
C   28.1075    0.4667    0.0000
C   26.8590   -0.4178   -0.0000
C   25.6090    0.4645    0.0000
C   24.3606   -0.4200   -0.0000
C   23.1105    0.4623    0.0000
C   21.8621   -0.4222   -0.0000
C   20.6121    0.4600    0.0000
C   19.3636   -0.4244   -0.0000
C   18.1136    0.4578    0.0000
C   16.8651   -0.4267   -0.0000
C   15.6151    0.4556    0.0000
C   14.3666   -0.4289   -0.0000
C   13.1166    0.4534    0.0000
C   11.8682   -0.4311   -0.0000
C   10.6181    0.4511    0.0000
C    9.3697   -0.4333   -0.0000
C    8.1197    0.4489    0.0000
C    6.8712   -0.4356   -0.0000
C    5.6212    0.4467    0.0000
C    4.3727   -0.4378   -0.0000
C    3.1227    0.4445    0.0000
C    1.8743   -0.4400   -0.0000
C    0.6242    0.4422    0.0000
C   -0.6242   -0.4422   -0.0000
C   -1.8743    0.4400    0.0000
C   -3.1227   -0.4445    0.0000
C   -4.3727    0.4378   -0.0000
C   -5.6212   -0.4467    0.0000
C   -6.8712    0.4356   -0.0000
C   -8.1197   -0.4489    0.0000
C   -9.3697    0.4333   -0.0000
C  -10.6181   -0.4511    0.0000
C  -11.8682    0.4311   -0.0000
C  -13.1166   -0.4534    0.0000
C  -14.3666    0.4289   -0.0000
C  -15.6151   -0.4556    0.0000
C  -16.8651    0.4267   -0.0000
C  -18.1136   -0.4578    0.0000
C  -19.3636    0.4244   -0.0000
C  -20.6121   -0.4600    0.0000
C  -21.8621    0.4222   -0.0000
C  -23.1105   -0.4623    0.0000
C  -24.3606    0.4200   -0.0000
C  -25.6090   -0.4645    0.0000
C  -26.8590    0.4178   -0.0000
C  -28.1075   -0.4667    0.0000
C  -29.3575    0.4155   -0.0000
C  -30.6060   -0.4689    0.0000
C  -31.8560    0.4133   -0.0000
H   31.8566   -1.0426    0.8900
H   31.8566   -1.0426   -0.8900
H   32.7454    0.2168    0.0000
H   30.6054    1.0982    0.8900
H   30.6054    1.0982   -0.8900
H   29.3581   -1.0448   -0.8900
H   29.3581   -1.0448    0.8900
H   28.1069    1.0960    0.8900
H   28.1069    1.0960   -0.8900
H   26.8596   -1.0471   -0.8900
H   26.8596   -1.0471    0.8900
H   25.6084    1.0938    0.8900
H   25.6084    1.0938   -0.8900
H   24.3611   -1.0493   -0.8900
H   24.3611   -1.0493    0.8900
H   23.1100    1.0916    0.8900
H   23.1100    1.0916   -0.8900
H   21.8626   -1.0515   -0.8900
H   21.8626   -1.0515    0.8900
H   20.6115    1.0893    0.8900
H   20.6115    1.0893   -0.8900
H   19.3642   -1.0537   -0.8900
H   19.3642   -1.0537    0.8900
H   18.1130    1.0871    0.8900
H   18.1130    1.0871   -0.8900
H   16.8657   -1.0560   -0.8900
H   16.8657   -1.0560    0.8900
H   15.6145    1.0849    0.8900
H   15.6145    1.0849   -0.8900
H   14.3672   -1.0582   -0.8900
H   14.3672   -1.0582    0.8900
H   13.1161    1.0827    0.8900
H   13.1161    1.0827   -0.8900
H   11.8687   -1.0604   -0.8900
H   11.8687   -1.0604    0.8900
H   10.6176    1.0804    0.8900
H   10.6176    1.0804   -0.8900
H    9.3702   -1.0626   -0.8900
H    9.3702   -1.0626    0.8900
H    8.1191    1.0782    0.8900
H    8.1191    1.0782   -0.8900
H    6.8718   -1.0649   -0.8900
H    6.8718   -1.0649    0.8900
H    5.6206    1.0760    0.8900
H    5.6206    1.0760   -0.8900
H    4.3733   -1.0671   -0.8900
H    4.3733   -1.0671    0.8900
H    3.1221    1.0738    0.8900
H    3.1221    1.0738   -0.8900
H    1.8748   -1.0693   -0.8900
H    1.8748   -1.0693    0.8900
H    0.6237    1.0715    0.8900
H    0.6237    1.0715   -0.8900
H   -0.6237   -1.0715   -0.8900
H   -0.6237   -1.0715    0.8900
H   -1.8748    1.0693    0.8900
H   -1.8748    1.0693   -0.8900
H   -3.1221   -1.0738   -0.8900
H   -3.1221   -1.0738    0.8900
H   -4.3733    1.0671    0.8900
H   -4.3733    1.0671   -0.8900
H   -5.6206   -1.0760   -0.8900
H   -5.6206   -1.0760    0.8900
H   -6.8718    1.0649    0.8900
H   -6.8718    1.0649   -0.8900
H   -8.1191   -1.0782   -0.8900
H   -8.1191   -1.0782    0.8900
H   -9.3702    1.0626    0.8900
H   -9.3702    1.0626   -0.8900
H  -10.6176   -1.0804   -0.8900
H  -10.6176   -1.0804    0.8900
H  -11.8687    1.0604    0.8900
H  -11.8687    1.0604   -0.8900
H  -13.1161   -1.0827   -0.8900
H  -13.1161   -1.0827    0.8900
H  -14.3672    1.0582    0.8900
H  -14.3672    1.0582   -0.8900
H  -15.6145   -1.0849   -0.8900
H  -15.6145   -1.0849    0.8900
H  -16.8657    1.0560    0.8900
H  -16.8657    1.0560   -0.8900
H  -18.1130   -1.0871   -0.8900
H  -18.1130   -1.0871    0.8900
H  -19.3642    1.0537    0.8900
H  -19.3642    1.0537   -0.8900
H  -20.6115   -1.0893   -0.8900
H  -20.6115   -1.0893    0.8900
H  -21.8626    1.0515    0.8900
H  -21.8626    1.0515   -0.8900
H  -23.1100   -1.0916   -0.8900
H  -23.1100   -1.0916    0.8900
H  -24.3611    1.0493    0.8900
H  -24.3611    1.0493   -0.8900
H  -25.6084   -1.0938   -0.8900
H  -25.6084   -1.0938    0.8900
H  -26.8596    1.0471    0.8900
H  -26.8596    1.0471   -0.8900
H  -28.1069   -1.0960   -0.8900
H  -28.1069   -1.0960    0.8900
H  -29.3581    1.0448    0.8900
H  -29.3581    1.0448   -0.8900
H  -30.6054   -1.0982   -0.8900
H  -30.6054   -1.0982    0.8900
H  -32.7454   -0.2168    0.0000
H  -31.8566    1.0426    0.8900
H  -31.8566    1.0426   -0.8900
