98
C32H66
C   19.3642   -0.3963   -0.0000
C   18.1129    0.4841    0.0000
C   16.8657   -0.4022   -0.0000
C   15.6144    0.4783    0.0000
C   14.3673   -0.4080   -0.0000
C   13.1159    0.4724    0.0000
C   11.8688   -0.4139   -0.0000
C   10.6175    0.4666    0.0000
C    9.3703   -0.4197   -0.0000
C    8.1190    0.4607    0.0000
C    6.8718   -0.4256   -0.0000
C    5.6205    0.4548    0.0000
C    4.3734   -0.4314   -0.0000
C    3.1221    0.4490    0.0000
C    1.8749   -0.4373   -0.0000
C    0.6236    0.4431    0.0000
C   -0.6236   -0.4431    0.0000
C   -1.8749    0.4373   -0.0000
C   -3.1221   -0.4490    0.0000
C   -4.3734    0.4314   -0.0000
C   -5.6205   -0.4548    0.0000
C   -6.8718    0.4256   -0.0000
C   -8.1190   -0.4607    0.0000
C   -9.3703    0.4197   -0.0000
C  -10.6175   -0.4666    0.0000
C  -11.8688    0.4139   -0.0000
C  -13.1159   -0.4724    0.0000
C  -14.3673    0.4080   -0.0000
C  -15.6144   -0.4783    0.0000
C  -16.8657    0.4022   -0.0000
C  -18.1129   -0.4841    0.0000
C  -19.3642    0.3963   -0.0000
H   20.2527    0.2351    0.0000
H   19.3657   -1.0256    0.8900
H   19.3657   -1.0256   -0.8900
H   18.1114    1.1134    0.8900
H   18.1114    1.1134   -0.8900
H   16.8672   -1.0315   -0.8900
H   16.8672   -1.0315    0.8900
H   15.6129    1.1076    0.8900
H   15.6129    1.1076   -0.8900
H   14.3687   -1.0373   -0.8900
H   14.3687   -1.0373    0.8900
H   13.1145    1.1017    0.8900
H   13.1145    1.1017   -0.8900
H   11.8703   -1.0432   -0.8900
H   11.8703   -1.0432    0.8900
H   10.6160    1.0959    0.8900
H   10.6160    1.0959   -0.8900
H    9.3718   -1.0490   -0.8900
H    9.3718   -1.0490    0.8900
H    8.1175    1.0900    0.8900
H    8.1175    1.0900   -0.8900
H    6.8733   -1.0549   -0.8900
H    6.8733   -1.0549    0.8900
H    5.6191    1.0842    0.8900
H    5.6191    1.0842   -0.8900
H    4.3748   -1.0607   -0.8900
H    4.3748   -1.0607    0.8900
H    3.1206    1.0783    0.8900
H    3.1206    1.0783   -0.8900
H    1.8764   -1.0666   -0.8900
H    1.8764   -1.0666    0.8900
H    0.6221    1.0724    0.8900
H    0.6221    1.0724   -0.8900
H   -0.6221   -1.0724   -0.8900
H   -0.6221   -1.0724    0.8900
H   -1.8764    1.0666    0.8900
H   -1.8764    1.0666   -0.8900
H   -3.1206   -1.0783   -0.8900
H   -3.1206   -1.0783    0.8900
H   -4.3748    1.0607    0.8900
H   -4.3748    1.0607   -0.8900
H   -5.6191   -1.0842   -0.8900
H   -5.6191   -1.0842    0.8900
H   -6.8733    1.0549    0.8900
H   -6.8733    1.0549   -0.8900
H   -8.1175   -1.0900   -0.8900
H   -8.1175   -1.0900    0.8900
H   -9.3718    1.0490    0.8900
H   -9.3718    1.0490   -0.8900
H  -10.6160   -1.0959   -0.8900
H  -10.6160   -1.0959    0.8900
H  -11.8703    1.0432    0.8900
H  -11.8703    1.0432   -0.8900
H  -13.1145   -1.1017   -0.8900
H  -13.1145   -1.1017    0.8900
H  -14.3687    1.0373    0.8900
H  -14.3687    1.0373   -0.8900
H  -15.6129   -1.1076   -0.8900
H  -15.6129   -1.1076    0.8900
H  -16.8672    1.0315    0.8900
H  -16.8672    1.0315   -0.8900
H  -18.1114   -1.1134   -0.8900
H  -18.1114   -1.1134    0.8900
H  -20.2527   -0.2351    0.0000
H  -19.3657    1.0256    0.8900
H  -19.3657    1.0256   -0.8900
