188
C62H126
C   38.1021   -0.4178   -0.0000
C   36.8523    0.4648    0.0000
C   35.6036   -0.4193   -0.0000
C   34.3538    0.4632    0.0000
C   33.1051   -0.4209   -0.0000
C   31.8553    0.4616    0.0000
C   30.6066   -0.4225   -0.0000
C   29.3569    0.4601    0.0000
C   28.1082   -0.4240   -0.0000
C   26.8584    0.4585    0.0000
C   25.6097   -0.4256   -0.0000
C   24.3599    0.4569    0.0000
C   23.1112   -0.4272   -0.0000
C   21.8614    0.4554    0.0000
C   20.6127   -0.4287   -0.0000
C   19.3629    0.4538    0.0000
C   18.1143   -0.4303   -0.0000
C   16.8645    0.4522    0.0000
C   15.6158   -0.4319   -0.0000
C   14.3660    0.4507    0.0000
C   13.1173   -0.4334   -0.0000
C   11.8675    0.4491    0.0000
C   10.6188   -0.4350   -0.0000
C    9.3690    0.4475    0.0000
C    8.1203   -0.4366   -0.0000
C    6.8705    0.4460    0.0000
C    5.6219   -0.4381   -0.0000
C    4.3721    0.4444    0.0000
C    3.1234   -0.4397   -0.0000
C    1.8736    0.4428    0.0000
C    0.6249   -0.4413    0.0000
C   -0.6249    0.4413    0.0000
C   -1.8736   -0.4428    0.0000
C   -3.1234    0.4397   -0.0000
C   -4.3721   -0.4444    0.0000
C   -5.6219    0.4381   -0.0000
C   -6.8705   -0.4460    0.0000
C   -8.1203    0.4366   -0.0000
C   -9.3690   -0.4475    0.0000
C  -10.6188    0.4350   -0.0000
C  -11.8675   -0.4491    0.0000
C  -13.1173    0.4334   -0.0000
C  -14.3660   -0.4507    0.0000
C  -15.6158    0.4319   -0.0000
C  -16.8645   -0.4522    0.0000
C  -18.1143    0.4303   -0.0000
C  -19.3629   -0.4538    0.0000
C  -20.6127    0.4287   -0.0000
C  -21.8614   -0.4554    0.0000
C  -23.1112    0.4272   -0.0000
C  -24.3599   -0.4569    0.0000
C  -25.6097    0.4256   -0.0000
C  -26.8584   -0.4585    0.0000
C  -28.1082    0.4240   -0.0000
C  -29.3569   -0.4601    0.0000
C  -30.6066    0.4225   -0.0000
C  -31.8553   -0.4616    0.0000
C  -33.1051    0.4209   -0.0000
C  -34.3538   -0.4632    0.0000
C  -35.6036    0.4193   -0.0000
C  -36.8523   -0.4648    0.0000
C  -38.1021    0.4178   -0.0000
H   38.9917    0.2121    0.0000
H   38.1025   -1.0471    0.8900
H   38.1025   -1.0471   -0.8900
H   36.8519    1.0941    0.8900
H   36.8519    1.0941   -0.8900
H   35.6040   -1.0487   -0.8900
H   35.6040   -1.0487    0.8900
H   34.3534    1.0925    0.8900
H   34.3534    1.0925   -0.8900
H   33.1055   -1.0502   -0.8900
H   33.1055   -1.0502    0.8900
H   31.8549    1.0910    0.8900
H   31.8549    1.0910   -0.8900
H   30.6070   -1.0518   -0.8900
H   30.6070   -1.0518    0.8900
H   29.3565    1.0894    0.8900
H   29.3565    1.0894   -0.8900
H   28.1086   -1.0534   -0.8900
H   28.1086   -1.0534    0.8900
H   26.8580    1.0878    0.8900
H   26.8580    1.0878   -0.8900
H   25.6101   -1.0549   -0.8900
H   25.6101   -1.0549    0.8900
H   24.3595    1.0863    0.8900
H   24.3595    1.0863   -0.8900
H   23.1116   -1.0565   -0.8900
H   23.1116   -1.0565    0.8900
H   21.8610    1.0847    0.8900
H   21.8610    1.0847   -0.8900
H   20.6131   -1.0581   -0.8900
H   20.6131   -1.0581    0.8900
H   19.3625    1.0831    0.8900
H   19.3625    1.0831   -0.8900
H   18.1146   -1.0596   -0.8900
H   18.1146   -1.0596    0.8900
H   16.8641    1.0816    0.8900
H   16.8641    1.0816   -0.8900
H   15.6162   -1.0612   -0.8900
H   15.6162   -1.0612    0.8900
H   14.3656    1.0800    0.8900
H   14.3656    1.0800   -0.8900
H   13.1177   -1.0628   -0.8900
H   13.1177   -1.0628    0.8900
H   11.8671    1.0784    0.8900
H   11.8671    1.0784   -0.8900
H   10.6192   -1.0643   -0.8900
H   10.6192   -1.0643    0.8900
H    9.3686    1.0769    0.8900
H    9.3686    1.0769   -0.8900
H    8.1207   -1.0659   -0.8900
H    8.1207   -1.0659    0.8900
H    6.8701    1.0753    0.8900
H    6.8701    1.0753   -0.8900
H    5.6222   -1.0675   -0.8900
H    5.6222   -1.0675    0.8900
H    4.3717    1.0737    0.8900
H    4.3717    1.0737   -0.8900
H    3.1238   -1.0690   -0.8900
H    3.1238   -1.0690    0.8900
H    1.8732    1.0722    0.8900
H    1.8732    1.0722   -0.8900
H    0.6253   -1.0706   -0.8900
H    0.6253   -1.0706    0.8900
H   -0.6253    1.0706    0.8900
H   -0.6253    1.0706   -0.8900
H   -1.8732   -1.0722   -0.8900
H   -1.8732   -1.0722    0.8900
H   -3.1238    1.0690    0.8900
H   -3.1238    1.0690   -0.8900
H   -4.3717   -1.0737   -0.8900
H   -4.3717   -1.0737    0.8900
H   -5.6222    1.0675    0.8900
H   -5.6222    1.0675   -0.8900
H   -6.8701   -1.0753   -0.8900
H   -6.8701   -1.0753    0.8900
H   -8.1207    1.0659    0.8900
H   -8.1207    1.0659   -0.8900
H   -9.3686   -1.0769   -0.8900
H   -9.3686   -1.0769    0.8900
H  -10.6192    1.0643    0.8900
H  -10.6192    1.0643   -0.8900
H  -11.8671   -1.0784   -0.8900
H  -11.8671   -1.0784    0.8900
H  -13.1177    1.0628    0.8900
H  -13.1177    1.0628   -0.8900
H  -14.3656   -1.0800   -0.8900
H  -14.3656   -1.0800    0.8900
H  -15.6162    1.0612    0.8900
H  -15.6162    1.0612   -0.8900
H  -16.8641   -1.0816   -0.8900
H  -16.8641   -1.0816    0.8900
H  -18.1146    1.0596    0.8900
H  -18.1146    1.0596   -0.8900
H  -19.3625   -1.0831   -0.8900
H  -19.3625   -1.0831    0.8900
H  -20.6131    1.0581    0.8900
H  -20.6131    1.0581   -0.8900
H  -21.8610   -1.0847   -0.8900
H  -21.8610   -1.0847    0.8900
H  -23.1116    1.0565    0.8900
H  -23.1116    1.0565   -0.8900
H  -24.3595   -1.0863   -0.8900
H  -24.3595   -1.0863    0.8900
H  -25.6101    1.0549    0.8900
H  -25.6101    1.0549   -0.8900
H  -26.8580   -1.0878   -0.8900
H  -26.8580   -1.0878    0.8900
H  -28.1086    1.0534    0.8900
H  -28.1086    1.0534   -0.8900
H  -29.3565   -1.0894   -0.8900
H  -29.3565   -1.0894    0.8900
H  -30.6070    1.0518    0.8900
H  -30.6070    1.0518   -0.8900
H  -31.8549   -1.0910   -0.8900
H  -31.8549   -1.0910    0.8900
H  -33.1055    1.0502    0.8900
H  -33.1055    1.0502   -0.8900
H  -34.3534   -1.0925   -0.8900
H  -34.3534   -1.0925    0.8900
H  -35.6040    1.0487    0.8900
H  -35.6040    1.0487   -0.8900
H  -36.8519   -1.0941   -0.8900
H  -36.8519   -1.0941    0.8900
H  -38.9917   -0.2121    0.0000
H  -38.1025    1.0471    0.8900
H  -38.1025    1.0471   -0.8900
