308
C102H206
C   63.0867    0.4270    0.0000
C   61.8373   -0.4560   -0.0000
C   60.5882    0.4276    0.0000
C   59.3388   -0.4555   -0.0000
C   58.0897    0.4282    0.0000
C   56.8403   -0.4549   -0.0000
C   55.5913    0.4288    0.0000
C   54.3418   -0.4543   -0.0000
C   53.0928    0.4293    0.0000
C   51.8433   -0.4537   -0.0000
C   50.5943    0.4299    0.0000
C   49.3449   -0.4531   -0.0000
C   48.0958    0.4305    0.0000
C   46.8464   -0.4526   -0.0000
C   45.5974    0.4311    0.0000
C   44.3479   -0.4520   -0.0000
C   43.0989    0.4317    0.0000
C   41.8494   -0.4514   -0.0000
C   40.6004    0.4322    0.0000
C   39.3509   -0.4508   -0.0000
C   38.1019    0.4328    0.0000
C   36.8525   -0.4502   -0.0000
C   35.6034    0.4334    0.0000
C   34.3540   -0.4497   -0.0000
C   33.1050    0.4340    0.0000
C   31.8555   -0.4491   -0.0000
C   30.6065    0.4346    0.0000
C   29.3570   -0.4485   -0.0000
C   28.1080    0.4351    0.0000
C   26.8586   -0.4479   -0.0000
C   25.6095    0.4357    0.0000
C   24.3601   -0.4473   -0.0000
C   23.1110    0.4363    0.0000
C   21.8616   -0.4467   -0.0000
C   20.6126    0.4369    0.0000
C   19.3631   -0.4462   -0.0000
C   18.1141    0.4375    0.0000
C   16.8646   -0.4456   -0.0000
C   15.6156    0.4380    0.0000
C   14.3662   -0.4450   -0.0000
C   13.1171    0.4386    0.0000
C   11.8677   -0.4444   -0.0000
C   10.6186    0.4392    0.0000
C    9.3692   -0.4438   -0.0000
C    8.1202    0.4398    0.0000
C    6.8707   -0.4433   -0.0000
C    5.6217    0.4404    0.0000
C    4.3722   -0.4427   -0.0000
C    3.1232    0.4409    0.0000
C    1.8738   -0.4421   -0.0000
C    0.6247    0.4415    0.0000
C   -0.6247   -0.4415   -0.0000
C   -1.8738    0.4421    0.0000
C   -3.1232   -0.4409   -0.0000
C   -4.3722    0.4427    0.0000
C   -5.6217   -0.4404   -0.0000
C   -6.8707    0.4433    0.0000
C   -8.1202   -0.4398   -0.0000
C   -9.3692    0.4438    0.0000
C  -10.6186   -0.4392   -0.0000
C  -11.8677    0.4444    0.0000
C  -13.1171   -0.4386   -0.0000
C  -14.3662    0.4450    0.0000
C  -15.6156   -0.4380   -0.0000
C  -16.8646    0.4456    0.0000
C  -18.1141   -0.4375   -0.0000
C  -19.3631    0.4462    0.0000
C  -20.6126   -0.4369   -0.0000
C  -21.8616    0.4467    0.0000
C  -23.1110   -0.4363   -0.0000
C  -24.3601    0.4473    0.0000
C  -25.6095   -0.4357   -0.0000
C  -26.8586    0.4479    0.0000
C  -28.1080   -0.4351   -0.0000
C  -29.3570    0.4485   -0.0000
C  -30.6065   -0.4346   -0.0000
C  -31.8555    0.4491   -0.0000
C  -33.1050   -0.4340   -0.0000
C  -34.3540    0.4497   -0.0000
C  -35.6034   -0.4334   -0.0000
C  -36.8525    0.4502   -0.0000
C  -38.1019   -0.4328   -0.0000
C  -39.3509    0.4508   -0.0000
C  -40.6004   -0.4322   -0.0000
C  -41.8494    0.4514   -0.0000
C  -43.0989   -0.4317   -0.0000
C  -44.3479    0.4520   -0.0000
C  -45.5974   -0.4311   -0.0000
C  -46.8464    0.4526   -0.0000
C  -48.0958   -0.4305    0.0000
C  -49.3449    0.4531   -0.0000
C  -50.5943   -0.4299    0.0000
C  -51.8433    0.4537   -0.0000
C  -53.0928   -0.4293    0.0000
C  -54.3418    0.4543   -0.0000
C  -55.5913   -0.4288    0.0000
C  -56.8403    0.4549   -0.0000
C  -58.0897   -0.4282    0.0000
C  -59.3388    0.4555   -0.0000
C  -60.5882   -0.4276    0.0000
C  -61.8373    0.4560   -0.0000
C  -63.0867   -0.4270    0.0000
H   63.0869    1.0563    0.8900
H   63.9765   -0.2025   -0.0000
H   63.0869    1.0563   -0.8900
H   61.8371   -1.0853   -0.8900
H   61.8371   -1.0854    0.8900
H   60.5884    1.0569    0.8900
H   60.5884    1.0569   -0.8900
H   59.3386   -1.0848   -0.8900
H   59.3386   -1.0848    0.8900
H   58.0899    1.0575    0.8900
H   58.0899    1.0575   -0.8900
H   56.8402   -1.0842   -0.8900
H   56.8402   -1.0842    0.8900
H   55.5914    1.0581    0.8900
H   55.5914    1.0581   -0.8900
H   54.3417   -1.0836   -0.8900
H   54.3417   -1.0836    0.8900
H   53.0929    1.0587    0.8900
H   53.0929    1.0587   -0.8900
H   51.8432   -1.0830   -0.8900
H   51.8432   -1.0830    0.8900
H   50.5945    1.0592    0.8900
H   50.5945    1.0592   -0.8900
H   49.3447   -1.0824   -0.8900
H   49.3447   -1.0824    0.8900
H   48.0960    1.0598    0.8900
H   48.0960    1.0598   -0.8900
H   46.8462   -1.0819   -0.8900
H   46.8462   -1.0819    0.8900
H   45.5975    1.0604    0.8900
H   45.5975    1.0604   -0.8900
H   44.3478   -1.0813   -0.8900
H   44.3478   -1.0813    0.8900
H   43.0990    1.0610    0.8900
H   43.0990    1.0610   -0.8900
H   41.8493   -1.0807   -0.8900
H   41.8493   -1.0807    0.8900
H   40.6005    1.0616    0.8900
H   40.6005    1.0616   -0.8900
H   39.3508   -1.0801   -0.8900
H   39.3508   -1.0801    0.8900
H   38.1021    1.0621    0.8900
H   38.1021    1.0621   -0.8900
H   36.8523   -1.0795   -0.8900
H   36.8523   -1.0795    0.8900
H   35.6036    1.0627    0.8900
H   35.6036    1.0627   -0.8900
H   34.3538   -1.0790   -0.8900
H   34.3538   -1.0790    0.8900
H   33.1051    1.0633    0.8900
H   33.1051    1.0633   -0.8900
H   31.8554   -1.0784   -0.8900
H   31.8554   -1.0784    0.8900
H   30.6066    1.0639    0.8900
H   30.6066    1.0639   -0.8900
H   29.3569   -1.0778   -0.8900
H   29.3569   -1.0778    0.8900
H   28.1081    1.0645    0.8900
H   28.1081    1.0645   -0.8900
H   26.8584   -1.0772   -0.8900
H   26.8584   -1.0772    0.8900
H   25.6097    1.0650    0.8900
H   25.6097    1.0650   -0.8900
H   24.3599   -1.0766   -0.8900
H   24.3599   -1.0766    0.8900
H   23.1112    1.0656    0.8900
H   23.1112    1.0656   -0.8900
H   21.8614   -1.0761   -0.8900
H   21.8614   -1.0761    0.8900
H   20.6127    1.0662    0.8900
H   20.6127    1.0662   -0.8900
H   19.3630   -1.0755   -0.8900
H   19.3630   -1.0755    0.8900
H   18.1142    1.0668    0.8900
H   18.1142    1.0668   -0.8900
H   16.8645   -1.0749   -0.8900
H   16.8645   -1.0749    0.8900
H   15.6157    1.0674    0.8900
H   15.6157    1.0674   -0.8900
H   14.3660   -1.0743   -0.8900
H   14.3660   -1.0743    0.8900
H   13.1173    1.0679    0.8900
H   13.1173    1.0679   -0.8900
H   11.8675   -1.0737   -0.8900
H   11.8675   -1.0737    0.8900
H   10.6188    1.0685    0.8900
H   10.6188    1.0685   -0.8900
H    9.3690   -1.0732   -0.8900
H    9.3690   -1.0732    0.8900
H    8.1203    1.0691    0.8900
H    8.1203    1.0691   -0.8900
H    6.8706   -1.0726   -0.8900
H    6.8706   -1.0726    0.8900
H    5.6218    1.0697    0.8900
H    5.6218    1.0697   -0.8900
H    4.3721   -1.0720   -0.8900
H    4.3721   -1.0720    0.8900
H    3.1233    1.0703    0.8900
H    3.1233    1.0703   -0.8900
H    1.8736   -1.0714   -0.8900
H    1.8736   -1.0714    0.8900
H    0.6249    1.0708    0.8900
H    0.6249    1.0708   -0.8900
H   -0.6249   -1.0708   -0.8900
H   -0.6249   -1.0708    0.8900
H   -1.8736    1.0714    0.8900
H   -1.8736    1.0714   -0.8900
H   -3.1233   -1.0703   -0.8900
H   -3.1233   -1.0703    0.8900
H   -4.3721    1.0720    0.8900
H   -4.3721    1.0720   -0.8900
H   -5.6218   -1.0697   -0.8900
H   -5.6218   -1.0697    0.8900
H   -6.8706    1.0726    0.8900
H   -6.8706    1.0726   -0.8900
H   -8.1203   -1.0691   -0.8900
H   -8.1203   -1.0691    0.8900
H   -9.3690    1.0732    0.8900
H   -9.3690    1.0732   -0.8900
H  -10.6188   -1.0685   -0.8900
H  -10.6188   -1.0685    0.8900
H  -11.8675    1.0737    0.8900
H  -11.8675    1.0737   -0.8900
H  -13.1173   -1.0679   -0.8900
H  -13.1173   -1.0679    0.8900
H  -14.3660    1.0743    0.8900
H  -14.3660    1.0743   -0.8900
H  -15.6157   -1.0674   -0.8900
H  -15.6157   -1.0674    0.8900
H  -16.8645    1.0749    0.8900
H  -16.8645    1.0749   -0.8900
H  -18.1142   -1.0668   -0.8900
H  -18.1142   -1.0668    0.8900
H  -19.3630    1.0755    0.8900
H  -19.3630    1.0755   -0.8900
H  -20.6127   -1.0662   -0.8900
H  -20.6127   -1.0662    0.8900
H  -21.8614    1.0761    0.8900
H  -21.8614    1.0761   -0.8900
H  -23.1112   -1.0656   -0.8900
H  -23.1112   -1.0656    0.8900
H  -24.3599    1.0766    0.8900
H  -24.3599    1.0766   -0.8900
H  -25.6097   -1.0650   -0.8900
H  -25.6097   -1.0650    0.8900
H  -26.8584    1.0772    0.8900
H  -26.8584    1.0772   -0.8900
H  -28.1081   -1.0645   -0.8900
H  -28.1081   -1.0645    0.8900
H  -29.3569    1.0778    0.8900
H  -29.3569    1.0778   -0.8900
H  -30.6066   -1.0639   -0.8900
H  -30.6066   -1.0639    0.8900
H  -31.8554    1.0784    0.8900
H  -31.8554    1.0784   -0.8900
H  -33.1051   -1.0633   -0.8900
H  -33.1051   -1.0633    0.8900
H  -34.3538    1.0790    0.8900
H  -34.3538    1.0790   -0.8900
H  -35.6036   -1.0627   -0.8900
H  -35.6036   -1.0627    0.8900
H  -36.8523    1.0795    0.8900
H  -36.8523    1.0795   -0.8900
H  -38.1021   -1.0621   -0.8900
H  -38.1021   -1.0621    0.8900
H  -39.3508    1.0801    0.8900
H  -39.3508    1.0801   -0.8900
H  -40.6005   -1.0616   -0.8900
H  -40.6005   -1.0616    0.8900
H  -41.8493    1.0807    0.8900
H  -41.8493    1.0807   -0.8900
H  -43.0990   -1.0610   -0.8900
H  -43.0990   -1.0610    0.8900
H  -44.3478    1.0813    0.8900
H  -44.3478    1.0813   -0.8900
H  -45.5975   -1.0604   -0.8900
H  -45.5975   -1.0604    0.8900
H  -46.8462    1.0819    0.8900
H  -46.8462    1.0819   -0.8900
H  -48.0960   -1.0598   -0.8900
H  -48.0960   -1.0598    0.8900
H  -49.3447    1.0824    0.8900
H  -49.3447    1.0824   -0.8900
H  -50.5945   -1.0592   -0.8900
H  -50.5945   -1.0592    0.8900
H  -51.8432    1.0830    0.8900
H  -51.8432    1.0830   -0.8900
H  -53.0929   -1.0587   -0.8900
H  -53.0929   -1.0587    0.8900
H  -54.3417    1.0836    0.8900
H  -54.3417    1.0836   -0.8900
H  -55.5914   -1.0581   -0.8900
H  -55.5914   -1.0581    0.8900
H  -56.8402    1.0842    0.8900
H  -56.8402    1.0842   -0.8900
H  -58.0899   -1.0575   -0.8900
H  -58.0899   -1.0575    0.8900
H  -59.3386    1.0848    0.8900
H  -59.3386    1.0848   -0.8900
H  -60.5884   -1.0569   -0.8900
H  -60.5884   -1.0569    0.8900
H  -61.8371    1.0853    0.8900
H  -61.8371    1.0853   -0.8900
H  -63.0869   -1.0563   -0.8900
H  -63.0869   -1.0563    0.8900
H  -63.9765    0.2025   -0.0000
