113
C37H76
C   22.4863   -0.4281   -0.0000
C   21.2371    0.4553    0.0000
C   19.9878   -0.4281   -0.0000
C   18.7386    0.4553    0.0000
C   17.4894   -0.4281   -0.0000
C   16.2401    0.4553    0.0000
C   14.9909   -0.4281   -0.0000
C   13.7416    0.4553    0.0000
C   12.4924   -0.4281   -0.0000
C   11.2432    0.4553    0.0000
C    9.9939   -0.4281   -0.0000
C    8.7447    0.4553    0.0000
C    7.4954   -0.4281   -0.0000
C    6.2462    0.4553    0.0000
C    4.9970   -0.4281   -0.0000
C    3.7477    0.4553    0.0000
C    2.4985   -0.4281   -0.0000
C    1.2492    0.4553    0.0000
C    0.0000   -0.4281   -0.0000
C   -1.2492    0.4553    0.0000
C   -2.4985   -0.4281   -0.0000
C   -3.7477    0.4553    0.0000
C   -4.9970   -0.4281   -0.0000
C   -6.2462    0.4553    0.0000
C   -7.4954   -0.4281   -0.0000
C   -8.7447    0.4553    0.0000
C   -9.9939   -0.4281   -0.0000
C  -11.2432    0.4553    0.0000
C  -12.4924   -0.4281   -0.0000
C  -13.7416    0.4553    0.0000
C  -14.9909   -0.4281   -0.0000
C  -16.2401    0.4553    0.0000
C  -17.4894   -0.4281   -0.0000
C  -18.7386    0.4553    0.0000
C  -19.9878   -0.4281   -0.0000
C  -21.2371    0.4553    0.0000
C  -22.4863   -0.4281   -0.0000
H   22.4863   -1.0574    0.8900
H   22.4863   -1.0574   -0.8900
H   23.3763    0.2012    0.0000
H   21.2371    1.0846    0.8900
H   21.2371    1.0846   -0.8900
H   19.9878   -1.0574   -0.8900
H   19.9878   -1.0574    0.8900
H   18.7386    1.0846    0.8900
H   18.7386    1.0846   -0.8900
H   17.4894   -1.0574   -0.8900
H   17.4894   -1.0574    0.8900
H   16.2401    1.0846    0.8900
H   16.2401    1.0846   -0.8900
H   14.9909   -1.0574   -0.8900
H   14.9909   -1.0574    0.8900
H   13.7416    1.0846    0.8900
H   13.7416    1.0846   -0.8900
H   12.4924   -1.0574   -0.8900
H   12.4924   -1.0574    0.8900
H   11.2432    1.0846    0.8900
H   11.2432    1.0846   -0.8900
H    9.9939   -1.0574   -0.8900
H    9.9939   -1.0574    0.8900
H    8.7447    1.0846    0.8900
H    8.7447    1.0846   -0.8900
H    7.4954   -1.0574   -0.8900
H    7.4954   -1.0574    0.8900
H    6.2462    1.0846    0.8900
H    6.2462    1.0846   -0.8900
H    4.9970   -1.0574   -0.8900
H    4.9970   -1.0574    0.8900
H    3.7477    1.0846    0.8900
H    3.7477    1.0846   -0.8900
H    2.4985   -1.0574   -0.8900
H    2.4985   -1.0574    0.8900
H    1.2492    1.0846    0.8900
H    1.2492    1.0846   -0.8900
H    0.0000   -1.0574   -0.8900
H   -0.0000   -1.0574    0.8900
H   -1.2492    1.0846    0.8900
H   -1.2492    1.0846   -0.8900
H   -2.4985   -1.0574   -0.8900
H   -2.4985   -1.0574    0.8900
H   -3.7477    1.0846    0.8900
H   -3.7477    1.0846   -0.8900
H   -4.9970   -1.0574   -0.8900
H   -4.9970   -1.0574    0.8900
H   -6.2462    1.0846    0.8900
H   -6.2462    1.0846   -0.8900
H   -7.4954   -1.0574   -0.8900
H   -7.4954   -1.0574    0.8900
H   -8.7447    1.0846    0.8900
H   -8.7447    1.0846   -0.8900
H   -9.9939   -1.0574   -0.8900
H   -9.9939   -1.0574    0.8900
H  -11.2432    1.0846    0.8900
H  -11.2432    1.0846   -0.8900
H  -12.4924   -1.0574   -0.8900
H  -12.4924   -1.0574    0.8900
H  -13.7416    1.0846    0.8900
H  -13.7416    1.0846   -0.8900
H  -14.9909   -1.0574   -0.8900
H  -14.9909   -1.0574    0.8900
H  -16.2401    1.0846    0.8900
H  -16.2401    1.0846   -0.8900
H  -17.4894   -1.0574   -0.8900
H  -17.4894   -1.0574    0.8900
H  -18.7386    1.0846    0.8900
H  -18.7386    1.0846   -0.8900
H  -19.9878   -1.0574   -0.8900
H  -19.9878   -1.0574    0.8900
H  -21.2371    1.0846    0.8900
H  -21.2371    1.0846   -0.8900
H  -22.4863   -1.0574   -0.8900
H  -22.4863   -1.0574    0.8900
H  -23.3763    0.2012    0.0000
