260
C86H174
C   53.0928   -0.4243   -0.0000
C   51.8433    0.4586    0.0000
C   50.5943   -0.4252   -0.0000
C   49.3448    0.4578    0.0000
C   48.0959   -0.4260   -0.0000
C   46.8463    0.4570    0.0000
C   45.5974   -0.4268   -0.0000
C   44.3479    0.4562    0.0000
C   43.0989   -0.4276   -0.0000
C   41.8494    0.4553    0.0000
C   40.6004   -0.4284   -0.0000
C   39.3509    0.4545    0.0000
C   38.1020   -0.4292   -0.0000
C   36.8524    0.4537    0.0000
C   35.6035   -0.4300   -0.0000
C   34.3539    0.4529    0.0000
C   33.1050   -0.4309   -0.0000
C   31.8555    0.4521    0.0000
C   30.6065   -0.4317   -0.0000
C   29.3570    0.4513    0.0000
C   28.1080   -0.4325   -0.0000
C   26.8585    0.4504    0.0000
C   25.6096   -0.4333   -0.0000
C   24.3600    0.4496    0.0000
C   23.1111   -0.4341   -0.0000
C   21.8615    0.4488    0.0000
C   20.6126   -0.4349   -0.0000
C   19.3631    0.4480    0.0000
C   18.1141   -0.4358   -0.0000
C   16.8646    0.4472    0.0000
C   15.6156   -0.4366   -0.0000
C   14.3661    0.4464    0.0000
C   13.1172   -0.4374   -0.0000
C   11.8676    0.4455    0.0000
C   10.6187   -0.4382   -0.0000
C    9.3692    0.4447    0.0000
C    8.1202   -0.4390   -0.0000
C    6.8707    0.4439    0.0000
C    5.6217   -0.4398   -0.0000
C    4.3722    0.4431    0.0000
C    3.1232   -0.4407   -0.0000
C    1.8737    0.4423    0.0000
C    0.6248   -0.4415   -0.0000
C   -0.6248    0.4415    0.0000
C   -1.8737   -0.4423    0.0000
C   -3.1232    0.4407   -0.0000
C   -4.3722   -0.4431    0.0000
C   -5.6217    0.4398   -0.0000
C   -6.8707   -0.4439    0.0000
C   -8.1202    0.4390   -0.0000
C   -9.3692   -0.4447    0.0000
C  -10.6187    0.4382   -0.0000
C  -11.8676   -0.4455    0.0000
C  -13.1172    0.4374   -0.0000
C  -14.3661   -0.4464    0.0000
C  -15.6156    0.4366   -0.0000
C  -16.8646   -0.4472    0.0000
C  -18.1141    0.4358   -0.0000
C  -19.3631   -0.4480    0.0000
C  -20.6126    0.4349   -0.0000
C  -21.8615   -0.4488    0.0000
C  -23.1111    0.4341   -0.0000
C  -24.3600   -0.4496    0.0000
C  -25.6096    0.4333   -0.0000
C  -26.8585   -0.4504    0.0000
C  -28.1080    0.4325   -0.0000
C  -29.3570   -0.4513    0.0000
C  -30.6065    0.4317   -0.0000
C  -31.8555   -0.4521    0.0000
C  -33.1050    0.4309   -0.0000
C  -34.3539   -0.4529    0.0000
C  -35.6035    0.4300   -0.0000
C  -36.8524   -0.4537    0.0000
C  -38.1020    0.4292   -0.0000
C  -39.3509   -0.4545    0.0000
C  -40.6004    0.4284   -0.0000
C  -41.8494   -0.4553    0.0000
C  -43.0989    0.4276   -0.0000
C  -44.3479   -0.4562    0.0000
C  -45.5974    0.4268   -0.0000
C  -46.8463   -0.4570    0.0000
C  -48.0959    0.4260   -0.0000
C  -49.3448   -0.4578    0.0000
C  -50.5943    0.4252   -0.0000
C  -51.8433   -0.4586    0.0000
C  -53.0928    0.4243   -0.0000
H   53.0930   -1.0537    0.8900
H   53.0930   -1.0536   -0.8900
H   53.9826    0.2053    0.0000
H   51.8431    1.0879    0.8900
H   51.8431    1.0879   -0.8900
H   50.5946   -1.0545   -0.8900
H   50.5946   -1.0545    0.8900
H   49.3446    1.0871    0.8900
H   49.3446    1.0871   -0.8900
H   48.0961   -1.0553   -0.8900
H   48.0961   -1.0553    0.8900
H   46.8461    1.0863    0.8900
H   46.8461    1.0863   -0.8900
H   45.5976   -1.0561   -0.8900
H   45.5976   -1.0561    0.8900
H   44.3477    1.0855    0.8900
H   44.3477    1.0855   -0.8900
H   43.0991   -1.0569   -0.8900
H   43.0991   -1.0569    0.8900
H   41.8492    1.0846    0.8900
H   41.8492    1.0846   -0.8900
H   40.6006   -1.0577   -0.8900
H   40.6006   -1.0577    0.8900
H   39.3507    1.0838    0.8900
H   39.3507    1.0838   -0.8900
H   38.1022   -1.0585   -0.8900
H   38.1022   -1.0585    0.8900
H   36.8522    1.0830    0.8900
H   36.8522    1.0830   -0.8900
H   35.6037   -1.0594   -0.8900
H   35.6037   -1.0594    0.8900
H   34.3537    1.0822    0.8900
H   34.3537    1.0822   -0.8900
H   33.1052   -1.0602   -0.8900
H   33.1052   -1.0602    0.8900
H   31.8553    1.0814    0.8900
H   31.8553    1.0814   -0.8900
H   30.6067   -1.0610   -0.8900
H   30.6067   -1.0610    0.8900
H   29.3568    1.0806    0.8900
H   29.3568    1.0806   -0.8900
H   28.1082   -1.0618   -0.8900
H   28.1082   -1.0618    0.8900
H   26.8583    1.0798    0.8900
H   26.8583    1.0798   -0.8900
H   25.6098   -1.0626   -0.8900
H   25.6098   -1.0626    0.8900
H   24.3598    1.0789    0.8900
H   24.3598    1.0789   -0.8900
H   23.1113   -1.0634   -0.8900
H   23.1113   -1.0634    0.8900
H   21.8613    1.0781    0.8900
H   21.8613    1.0781   -0.8900
H   20.6128   -1.0643   -0.8900
H   20.6128   -1.0643    0.8900
H   19.3629    1.0773    0.8900
H   19.3629    1.0773   -0.8900
H   18.1143   -1.0651   -0.8900
H   18.1143   -1.0651    0.8900
H   16.8644    1.0765    0.8900
H   16.8644    1.0765   -0.8900
H   15.6158   -1.0659   -0.8900
H   15.6158   -1.0659    0.8900
H   14.3659    1.0757    0.8900
H   14.3659    1.0757   -0.8900
H   13.1174   -1.0667   -0.8900
H   13.1174   -1.0667    0.8900
H   11.8674    1.0749    0.8900
H   11.8674    1.0749   -0.8900
H   10.6189   -1.0675   -0.8900
H   10.6189   -1.0675    0.8900
H    9.3689    1.0740    0.8900
H    9.3689    1.0740   -0.8900
H    8.1204   -1.0683   -0.8900
H    8.1204   -1.0683    0.8900
H    6.8705    1.0732    0.8900
H    6.8705    1.0732   -0.8900
H    5.6219   -1.0691   -0.8900
H    5.6219   -1.0691    0.8900
H    4.3720    1.0724    0.8900
H    4.3720    1.0724   -0.8900
H    3.1234   -1.0700   -0.8900
H    3.1234   -1.0700    0.8900
H    1.8735    1.0716    0.8900
H    1.8735    1.0716   -0.8900
H    0.6250   -1.0708   -0.8900
H    0.6250   -1.0708    0.8900
H   -0.6250    1.0708    0.8900
H   -0.6250    1.0708   -0.8900
H   -1.8735   -1.0716   -0.8900
H   -1.8735   -1.0716    0.8900
H   -3.1234    1.0700    0.8900
H   -3.1234    1.0700   -0.8900
H   -4.3720   -1.0724   -0.8900
H   -4.3720   -1.0724    0.8900
H   -5.6219    1.0691    0.8900
H   -5.6219    1.0691   -0.8900
H   -6.8705   -1.0732   -0.8900
H   -6.8705   -1.0732    0.8900
H   -8.1204    1.0683    0.8900
H   -8.1204    1.0683   -0.8900
H   -9.3689   -1.0740   -0.8900
H   -9.3689   -1.0740    0.8900
H  -10.6189    1.0675    0.8900
H  -10.6189    1.0675   -0.8900
H  -11.8674   -1.0749   -0.8900
H  -11.8674   -1.0749    0.8900
H  -13.1174    1.0667    0.8900
H  -13.1174    1.0667   -0.8900
H  -14.3659   -1.0757   -0.8900
H  -14.3659   -1.0757    0.8900
H  -15.6158    1.0659    0.8900
H  -15.6158    1.0659   -0.8900
H  -16.8644   -1.0765   -0.8900
H  -16.8644   -1.0765    0.8900
H  -18.1143    1.0651    0.8900
H  -18.1143    1.0651   -0.8900
H  -19.3629   -1.0773   -0.8900
H  -19.3629   -1.0773    0.8900
H  -20.6128    1.0643    0.8900
H  -20.6128    1.0643   -0.8900
H  -21.8613   -1.0781   -0.8900
H  -21.8613   -1.0781    0.8900
H  -23.1113    1.0634    0.8900
H  -23.1113    1.0634   -0.8900
H  -24.3598   -1.0789   -0.8900
H  -24.3598   -1.0789    0.8900
H  -25.6098    1.0626    0.8900
H  -25.6098    1.0626   -0.8900
H  -26.8583   -1.0798   -0.8900
H  -26.8583   -1.0798    0.8900
H  -28.1082    1.0618    0.8900
H  -28.1082    1.0618   -0.8900
H  -29.3568   -1.0806   -0.8900
H  -29.3568   -1.0806    0.8900
H  -30.6067    1.0610    0.8900
H  -30.6067    1.0610   -0.8900
H  -31.8553   -1.0814   -0.8900
H  -31.8553   -1.0814    0.8900
H  -33.1052    1.0602    0.8900
H  -33.1052    1.0602   -0.8900
H  -34.3537   -1.0822   -0.8900
H  -34.3537   -1.0822    0.8900
H  -35.6037    1.0594    0.8900
H  -35.6037    1.0594   -0.8900
H  -36.8522   -1.0830   -0.8900
H  -36.8522   -1.0830    0.8900
H  -38.1022    1.0585    0.8900
H  -38.1022    1.0585   -0.8900
H  -39.3507   -1.0838   -0.8900
H  -39.3507   -1.0838    0.8900
H  -40.6006    1.0577    0.8900
H  -40.6006    1.0577   -0.8900
H  -41.8492   -1.0846   -0.8900
H  -41.8492   -1.0846    0.8900
H  -43.0991    1.0569    0.8900
H  -43.0991    1.0569   -0.8900
H  -44.3477   -1.0855   -0.8900
H  -44.3477   -1.0855    0.8900
H  -45.5976    1.0561    0.8900
H  -45.5976    1.0561   -0.8900
H  -46.8461   -1.0863   -0.8900
H  -46.8461   -1.0863    0.8900
H  -48.0961    1.0553    0.8900
H  -48.0961    1.0553   -0.8900
H  -49.3446   -1.0871   -0.8900
H  -49.3446   -1.0871    0.8900
H  -50.5946    1.0545    0.8900
H  -50.5946    1.0545   -0.8900
H  -51.8431   -1.0879   -0.8900
H  -51.8431   -1.0879    0.8900
H  -53.0930    1.0537    0.8900
H  -53.0930    1.0536   -0.8900
H  -53.9826   -0.2053    0.0000
