290
C96H194
C   59.3390   -0.4261   -0.0000
C   58.0895    0.4569    0.0000
C   56.8405   -0.4268   -0.0000
C   55.5910    0.4562    0.0000
C   54.3420   -0.4274   -0.0000
C   53.0926    0.4556    0.0000
C   51.8436   -0.4281   -0.0000
C   50.5941    0.4549    0.0000
C   49.3451   -0.4287   -0.0000
C   48.0956    0.4543    0.0000
C   46.8466   -0.4294   -0.0000
C   45.5971    0.4536    0.0000
C   44.3481   -0.4300   -0.0000
C   43.0987    0.4530    0.0000
C   41.8496   -0.4307   -0.0000
C   40.6002    0.4523    0.0000
C   39.3512   -0.4314   -0.0000
C   38.1017    0.4517    0.0000
C   36.8527   -0.4320   -0.0000
C   35.6032    0.4510    0.0000
C   34.3542   -0.4327   -0.0000
C   33.1047    0.4504    0.0000
C   31.8557   -0.4333   -0.0000
C   30.6063    0.4497    0.0000
C   29.3572   -0.4340   -0.0000
C   28.1078    0.4490    0.0000
C   26.8588   -0.4346   -0.0000
C   25.6093    0.4484    0.0000
C   24.3603   -0.4353   -0.0000
C   23.1108    0.4477    0.0000
C   21.8618   -0.4359   -0.0000
C   20.6123    0.4471    0.0000
C   19.3633   -0.4366   -0.0000
C   18.1139    0.4464    0.0000
C   16.8649   -0.4373   -0.0000
C   15.6154    0.4458    0.0000
C   14.3664   -0.4379   -0.0000
C   13.1169    0.4451    0.0000
C   11.8679   -0.4386   -0.0000
C   10.6184    0.4445    0.0000
C    9.3694   -0.4392   -0.0000
C    8.1199    0.4438    0.0000
C    6.8709   -0.4399   -0.0000
C    5.6215    0.4431    0.0000
C    4.3725   -0.4405   -0.0000
C    3.1230    0.4425    0.0000
C    1.8740   -0.4412   -0.0000
C    0.6245    0.4418    0.0000
C   -0.6245   -0.4418    0.0000
C   -1.8740    0.4412   -0.0000
C   -3.1230   -0.4425    0.0000
C   -4.3725    0.4405   -0.0000
C   -5.6215   -0.4431    0.0000
C   -6.8709    0.4399   -0.0000
C   -8.1199   -0.4438    0.0000
C   -9.3694    0.4392   -0.0000
C  -10.6184   -0.4445    0.0000
C  -11.8679    0.4386   -0.0000
C  -13.1169   -0.4451    0.0000
C  -14.3664    0.4379   -0.0000
C  -15.6154   -0.4458    0.0000
C  -16.8649    0.4373   -0.0000
C  -18.1139   -0.4464    0.0000
C  -19.3633    0.4366   -0.0000
C  -20.6123   -0.4471    0.0000
C  -21.8618    0.4359   -0.0000
C  -23.1108   -0.4477    0.0000
C  -24.3603    0.4353   -0.0000
C  -25.6093   -0.4484    0.0000
C  -26.8588    0.4346   -0.0000
C  -28.1078   -0.4490    0.0000
C  -29.3572    0.4340   -0.0000
C  -30.6063   -0.4497    0.0000
C  -31.8557    0.4333   -0.0000
C  -33.1047   -0.4504    0.0000
C  -34.3542    0.4327   -0.0000
C  -35.6032   -0.4510    0.0000
C  -36.8527    0.4320   -0.0000
C  -38.1017   -0.4517    0.0000
C  -39.3512    0.4314   -0.0000
C  -40.6002   -0.4523    0.0000
C  -41.8496    0.4307   -0.0000
C  -43.0987   -0.4530    0.0000
C  -44.3481    0.4300   -0.0000
C  -45.5971   -0.4536    0.0000
C  -46.8466    0.4294   -0.0000
C  -48.0956   -0.4543    0.0000
C  -49.3451    0.4287   -0.0000
C  -50.5941   -0.4549    0.0000
C  -51.8436    0.4281   -0.0000
C  -53.0926   -0.4556    0.0000
C  -54.3420    0.4274   -0.0000
C  -55.5910   -0.4562    0.0000
C  -56.8405    0.4268   -0.0000
C  -58.0895   -0.4569    0.0000
C  -59.3390    0.4261   -0.0000
H   60.2288    0.2034    0.0000
H   59.3392   -1.0554    0.8900
H   59.3392   -1.0554   -0.8900
H   58.0894    1.0862    0.8900
H   58.0894    1.0862   -0.8900
H   56.8407   -1.0561   -0.8900
H   56.8407   -1.0561    0.8900
H   55.5909    1.0856    0.8900
H   55.5909    1.0856   -0.8900
H   54.3422   -1.0567   -0.8900
H   54.3422   -1.0567    0.8900
H   53.0924    1.0849    0.8900
H   53.0924    1.0849   -0.8900
H   51.8437   -1.0574   -0.8900
H   51.8437   -1.0574    0.8900
H   50.5939    1.0842    0.8900
H   50.5939    1.0842   -0.8900
H   49.3452   -1.0580   -0.8900
H   49.3452   -1.0581    0.8900
H   48.0954    1.0836    0.8900
H   48.0954    1.0836   -0.8900
H   46.8468   -1.0587   -0.8900
H   46.8468   -1.0587    0.8900
H   45.5970    1.0829    0.8900
H   45.5970    1.0829   -0.8900
H   44.3483   -1.0594   -0.8900
H   44.3483   -1.0594    0.8900
H   43.0985    1.0823    0.8900
H   43.0985    1.0823   -0.8900
H   41.8498   -1.0600   -0.8900
H   41.8498   -1.0600    0.8900
H   40.6000    1.0816    0.8900
H   40.6000    1.0816   -0.8900
H   39.3513   -1.0607   -0.8900
H   39.3513   -1.0607    0.8900
H   38.1015    1.0810    0.8900
H   38.1015    1.0810   -0.8900
H   36.8529   -1.0613   -0.8900
H   36.8529   -1.0613    0.8900
H   35.6031    1.0803    0.8900
H   35.6031    1.0803   -0.8900
H   34.3544   -1.0620   -0.8900
H   34.3544   -1.0620    0.8900
H   33.1046    1.0797    0.8900
H   33.1046    1.0797   -0.8900
H   31.8559   -1.0626   -0.8900
H   31.8559   -1.0626    0.8900
H   30.6061    1.0790    0.8900
H   30.6061    1.0790   -0.8900
H   29.3574   -1.0633   -0.8900
H   29.3574   -1.0633    0.8900
H   28.1076    1.0784    0.8900
H   28.1076    1.0784   -0.8900
H   26.8589   -1.0639   -0.8900
H   26.8589   -1.0639    0.8900
H   25.6091    1.0777    0.8900
H   25.6091    1.0777   -0.8900
H   24.3605   -1.0646   -0.8900
H   24.3605   -1.0646    0.8900
H   23.1107    1.0770    0.8900
H   23.1107    1.0770   -0.8900
H   21.8620   -1.0653   -0.8900
H   21.8620   -1.0653    0.8900
H   20.6122    1.0764    0.8900
H   20.6122    1.0764   -0.8900
H   19.3635   -1.0659   -0.8900
H   19.3635   -1.0659    0.8900
H   18.1137    1.0757    0.8900
H   18.1137    1.0757   -0.8900
H   16.8650   -1.0666   -0.8900
H   16.8650   -1.0666    0.8900
H   15.6152    1.0751    0.8900
H   15.6152    1.0751   -0.8900
H   14.3665   -1.0672   -0.8900
H   14.3665   -1.0672    0.8900
H   13.1167    1.0744    0.8900
H   13.1167    1.0744   -0.8900
H   11.8681   -1.0679   -0.8900
H   11.8681   -1.0679    0.8900
H   10.6183    1.0738    0.8900
H   10.6183    1.0738   -0.8900
H    9.3696   -1.0685   -0.8900
H    9.3696   -1.0685    0.8900
H    8.1198    1.0731    0.8900
H    8.1198    1.0731   -0.8900
H    6.8711   -1.0692   -0.8900
H    6.8711   -1.0692    0.8900
H    5.6213    1.0725    0.8900
H    5.6213    1.0725   -0.8900
H    4.3726   -1.0698   -0.8900
H    4.3726   -1.0698    0.8900
H    3.1228    1.0718    0.8900
H    3.1228    1.0718   -0.8900
H    1.8741   -1.0705   -0.8900
H    1.8741   -1.0705    0.8900
H    0.6243    1.0711    0.8900
H    0.6243    1.0711   -0.8900
H   -0.6243   -1.0711   -0.8900
H   -0.6243   -1.0711    0.8900
H   -1.8741    1.0705    0.8900
H   -1.8741    1.0705   -0.8900
H   -3.1228   -1.0718   -0.8900
H   -3.1228   -1.0718    0.8900
H   -4.3726    1.0698    0.8900
H   -4.3726    1.0698   -0.8900
H   -5.6213   -1.0725   -0.8900
H   -5.6213   -1.0725    0.8900
H   -6.8711    1.0692    0.8900
H   -6.8711    1.0692   -0.8900
H   -8.1198   -1.0731   -0.8900
H   -8.1198   -1.0731    0.8900
H   -9.3696    1.0685    0.8900
H   -9.3696    1.0685   -0.8900
H  -10.6183   -1.0738   -0.8900
H  -10.6183   -1.0738    0.8900
H  -11.8681    1.0679    0.8900
H  -11.8681    1.0679   -0.8900
H  -13.1167   -1.0744   -0.8900
H  -13.1167   -1.0744    0.8900
H  -14.3665    1.0672    0.8900
H  -14.3665    1.0672   -0.8900
H  -15.6152   -1.0751   -0.8900
H  -15.6152   -1.0751    0.8900
H  -16.8650    1.0666    0.8900
H  -16.8650    1.0666   -0.8900
H  -18.1137   -1.0757   -0.8900
H  -18.1137   -1.0757    0.8900
H  -19.3635    1.0659    0.8900
H  -19.3635    1.0659   -0.8900
H  -20.6122   -1.0764   -0.8900
H  -20.6122   -1.0764    0.8900
H  -21.8620    1.0653    0.8900
H  -21.8620    1.0653   -0.8900
H  -23.1107   -1.0770   -0.8900
H  -23.1107   -1.0770    0.8900
H  -24.3605    1.0646    0.8900
H  -24.3605    1.0646   -0.8900
H  -25.6091   -1.0777   -0.8900
H  -25.6091   -1.0777    0.8900
H  -26.8589    1.0639    0.8900
H  -26.8589    1.0639   -0.8900
H  -28.1076   -1.0784   -0.8900
H  -28.1076   -1.0784    0.8900
H  -29.3574    1.0633    0.8900
H  -29.3574    1.0633   -0.8900
H  -30.6061   -1.0790   -0.8900
H  -30.6061   -1.0790    0.8900
H  -31.8559    1.0626    0.8900
H  -31.8559    1.0626   -0.8900
H  -33.1046   -1.0797   -0.8900
H  -33.1046   -1.0797    0.8900
H  -34.3544    1.0620    0.8900
H  -34.3544    1.0620   -0.8900
H  -35.6031   -1.0803   -0.8900
H  -35.6031   -1.0803    0.8900
H  -36.8529    1.0613    0.8900
H  -36.8529    1.0613   -0.8900
H  -38.1015   -1.0810   -0.8900
H  -38.1015   -1.0810    0.8900
H  -39.3513    1.0607    0.8900
H  -39.3513    1.0607   -0.8900
H  -40.6000   -1.0816   -0.8900
H  -40.6000   -1.0816    0.8900
H  -41.8498    1.0600    0.8900
H  -41.8498    1.0600   -0.8900
H  -43.0985   -1.0823   -0.8900
H  -43.0985   -1.0823    0.8900
H  -44.3483    1.0594    0.8900
H  -44.3483    1.0594   -0.8900
H  -45.5970   -1.0829   -0.8900
H  -45.5970   -1.0829    0.8900
H  -46.8468    1.0587    0.8900
H  -46.8468    1.0587   -0.8900
H  -48.0954   -1.0836   -0.8900
H  -48.0954   -1.0836    0.8900
H  -49.3452    1.0581    0.8900
H  -49.3452    1.0580   -0.8900
H  -50.5939   -1.0842   -0.8900
H  -50.5939   -1.0842    0.8900
H  -51.8437    1.0574    0.8900
H  -51.8437    1.0574   -0.8900
H  -53.0924   -1.0849   -0.8900
H  -53.0924   -1.0849    0.8900
H  -54.3422    1.0567    0.8900
H  -54.3422    1.0567   -0.8900
H  -55.5909   -1.0856   -0.8900
H  -55.5909   -1.0856    0.8900
H  -56.8407    1.0561    0.8900
H  -56.8407    1.0561   -0.8900
H  -58.0894   -1.0862   -0.8900
H  -58.0894   -1.0862    0.8900
H  -59.3392    1.0554   -0.8900
H  -60.2288   -0.2034    0.0000
H  -59.3392    1.0554    0.8900
