200
C66H134
C   40.6005   -0.4192   -0.0000
C   39.3508    0.4635    0.0000
C   38.1021   -0.4206   -0.0000
C   36.8523    0.4621    0.0000
C   35.6036   -0.4220   -0.0000
C   34.3538    0.4607    0.0000
C   33.1051   -0.4233   -0.0000
C   31.8554    0.4593    0.0000
C   30.6066   -0.4247   -0.0000
C   29.3569    0.4579    0.0000
C   28.1081   -0.4261   -0.0000
C   26.8584    0.4565    0.0000
C   25.6097   -0.4275   -0.0000
C   24.3599    0.4552    0.0000
C   23.1112   -0.4289   -0.0000
C   21.8614    0.4538    0.0000
C   20.6127   -0.4303   -0.0000
C   19.3630    0.4524    0.0000
C   18.1142   -0.4316   -0.0000
C   16.8645    0.4510    0.0000
C   15.6157   -0.4330   -0.0000
C   14.3660    0.4496    0.0000
C   13.1173   -0.4344   -0.0000
C   11.8675    0.4482    0.0000
C   10.6188   -0.4358   -0.0000
C    9.3691    0.4469    0.0000
C    8.1203   -0.4372   -0.0000
C    6.8706    0.4455    0.0000
C    5.6218   -0.4386   -0.0000
C    4.3721    0.4441    0.0000
C    3.1233   -0.4399   -0.0000
C    1.8736    0.4427    0.0000
C    0.6249   -0.4413    0.0000
C   -0.6249    0.4413    0.0000
C   -1.8736   -0.4427    0.0000
C   -3.1233    0.4399   -0.0000
C   -4.3721   -0.4441    0.0000
C   -5.6218    0.4386   -0.0000
C   -6.8706   -0.4455    0.0000
C   -8.1203    0.4372   -0.0000
C   -9.3691   -0.4469    0.0000
C  -10.6188    0.4358   -0.0000
C  -11.8675   -0.4482    0.0000
C  -13.1173    0.4344   -0.0000
C  -14.3660   -0.4496    0.0000
C  -15.6157    0.4330   -0.0000
C  -16.8645   -0.4510    0.0000
C  -18.1142    0.4316   -0.0000
C  -19.3630   -0.4524    0.0000
C  -20.6127    0.4303   -0.0000
C  -21.8614   -0.4538    0.0000
C  -23.1112    0.4289   -0.0000
C  -24.3599   -0.4552    0.0000
C  -25.6097    0.4275   -0.0000
C  -26.8584   -0.4565    0.0000
C  -28.1081    0.4261   -0.0000
C  -29.3569   -0.4579    0.0000
C  -30.6066    0.4247   -0.0000
C  -31.8554   -0.4593    0.0000
C  -33.1051    0.4233   -0.0000
C  -34.3538   -0.4607    0.0000
C  -35.6036    0.4220   -0.0000
C  -36.8523   -0.4621    0.0000
C  -38.1021    0.4206   -0.0000
C  -39.3508   -0.4635    0.0000
C  -40.6005    0.4192   -0.0000
H   41.4902    0.2106    0.0000
H   40.6009   -1.0485    0.8900
H   40.6009   -1.0485   -0.8900
H   39.3505    1.0928    0.8900
H   39.3505    1.0928   -0.8900
H   38.1024   -1.0499   -0.8900
H   38.1024   -1.0499    0.8900
H   36.8520    1.0914    0.8900
H   36.8520    1.0914   -0.8900
H   35.6039   -1.0513   -0.8900
H   35.6039   -1.0513    0.8900
H   34.3535    1.0900    0.8900
H   34.3535    1.0900   -0.8900
H   33.1054   -1.0527   -0.8900
H   33.1054   -1.0527    0.8900
H   31.8550    1.0886    0.8900
H   31.8550    1.0886   -0.8900
H   30.6070   -1.0540   -0.8900
H   30.6070   -1.0540    0.8900
H   29.3565    1.0872    0.8900
H   29.3565    1.0872   -0.8900
H   28.1085   -1.0554   -0.8900
H   28.1085   -1.0554    0.8900
H   26.8581    1.0859    0.8900
H   26.8581    1.0859   -0.8900
H   25.6100   -1.0568   -0.8900
H   25.6100   -1.0568    0.8900
H   24.3596    1.0845    0.8900
H   24.3596    1.0845   -0.8900
H   23.1115   -1.0582   -0.8900
H   23.1115   -1.0582    0.8900
H   21.8611    1.0831    0.8900
H   21.8611    1.0831   -0.8900
H   20.6130   -1.0596   -0.8900
H   20.6130   -1.0596    0.8900
H   19.3626    1.0817    0.8900
H   19.3626    1.0817   -0.8900
H   18.1146   -1.0610   -0.8900
H   18.1146   -1.0610    0.8900
H   16.8641    1.0803    0.8900
H   16.8641    1.0803   -0.8900
H   15.6161   -1.0623   -0.8900
H   15.6161   -1.0623    0.8900
H   14.3657    1.0789    0.8900
H   14.3657    1.0789   -0.8900
H   13.1176   -1.0637   -0.8900
H   13.1176   -1.0637    0.8900
H   11.8672    1.0776    0.8900
H   11.8672    1.0776   -0.8900
H   10.6191   -1.0651   -0.8900
H   10.6191   -1.0651    0.8900
H    9.3687    1.0762    0.8900
H    9.3687    1.0762   -0.8900
H    8.1207   -1.0665   -0.8900
H    8.1207   -1.0665    0.8900
H    6.8702    1.0748    0.8900
H    6.8702    1.0748   -0.8900
H    5.6222   -1.0679   -0.8900
H    5.6222   -1.0679    0.8900
H    4.3717    1.0734    0.8900
H    4.3717    1.0734   -0.8900
H    3.1237   -1.0693   -0.8900
H    3.1237   -1.0693    0.8900
H    1.8733    1.0720    0.8900
H    1.8733    1.0720   -0.8900
H    0.6252   -1.0706   -0.8900
H    0.6252   -1.0706    0.8900
H   -0.6252    1.0706    0.8900
H   -0.6252    1.0706   -0.8900
H   -1.8733   -1.0720   -0.8900
H   -1.8733   -1.0720    0.8900
H   -3.1237    1.0693    0.8900
H   -3.1237    1.0693   -0.8900
H   -4.3717   -1.0734   -0.8900
H   -4.3717   -1.0734    0.8900
H   -5.6222    1.0679    0.8900
H   -5.6222    1.0679   -0.8900
H   -6.8702   -1.0748   -0.8900
H   -6.8702   -1.0748    0.8900
H   -8.1207    1.0665    0.8900
H   -8.1207    1.0665   -0.8900
H   -9.3687   -1.0762   -0.8900
H   -9.3687   -1.0762    0.8900
H  -10.6191    1.0651    0.8900
H  -10.6191    1.0651   -0.8900
H  -11.8672   -1.0776   -0.8900
H  -11.8672   -1.0776    0.8900
H  -13.1176    1.0637    0.8900
H  -13.1176    1.0637   -0.8900
H  -14.3657   -1.0789   -0.8900
H  -14.3657   -1.0789    0.8900
H  -15.6161    1.0623    0.8900
H  -15.6161    1.0623   -0.8900
H  -16.8641   -1.0803   -0.8900
H  -16.8641   -1.0803    0.8900
H  -18.1146    1.0610    0.8900
H  -18.1146    1.0610   -0.8900
H  -19.3626   -1.0817   -0.8900
H  -19.3626   -1.0817    0.8900
H  -20.6130    1.0596    0.8900
H  -20.6130    1.0596   -0.8900
H  -21.8611   -1.0831   -0.8900
H  -21.8611   -1.0831    0.8900
H  -23.1115    1.0582    0.8900
H  -23.1115    1.0582   -0.8900
H  -24.3596   -1.0845   -0.8900
H  -24.3596   -1.0845    0.8900
H  -25.6100    1.0568    0.8900
H  -25.6100    1.0568   -0.8900
H  -26.8581   -1.0859   -0.8900
H  -26.8581   -1.0859    0.8900
H  -28.1085    1.0554    0.8900
H  -28.1085    1.0554   -0.8900
H  -29.3565   -1.0872   -0.8900
H  -29.3565   -1.0872    0.8900
H  -30.6070    1.0540    0.8900
H  -30.6070    1.0540   -0.8900
H  -31.8550   -1.0886   -0.8900
H  -31.8550   -1.0886    0.8900
H  -33.1054    1.0527    0.8900
H  -33.1054    1.0527   -0.8900
H  -34.3535   -1.0900   -0.8900
H  -34.3535   -1.0900    0.8900
H  -35.6039    1.0513    0.8900
H  -35.6039    1.0513   -0.8900
H  -36.8520   -1.0914   -0.8900
H  -36.8520   -1.0914    0.8900
H  -38.1024    1.0499    0.8900
H  -38.1024    1.0499   -0.8900
H  -39.3505   -1.0928   -0.8900
H  -39.3505   -1.0928    0.8900
H  -41.4902   -0.2106    0.0000
H  -40.6009    1.0485    0.8900
H  -40.6009    1.0485   -0.8900
