140
C46H94
C   28.1084   -0.4097   -0.0000
C   26.8581    0.4722    0.0000
C   25.6099   -0.4126   -0.0000
C   24.3597    0.4694    0.0000
C   23.1114   -0.4154   -0.0000
C   21.8612    0.4665    0.0000
C   20.6129   -0.4182   -0.0000
C   19.3627    0.4637    0.0000
C   18.1145   -0.4211   -0.0000
C   16.8642    0.4608    0.0000
C   15.6160   -0.4239   -0.0000
C   14.3657    0.4580    0.0000
C   13.1175   -0.4268   -0.0000
C   11.8673    0.4552    0.0000
C   10.6190   -0.4296   -0.0000
C    9.3688    0.4523    0.0000
C    8.1206   -0.4324   -0.0000
C    6.8703    0.4495    0.0000
C    5.6221   -0.4353   -0.0000
C    4.3718    0.4466    0.0000
C    3.1236   -0.4381   -0.0000
C    1.8734    0.4438    0.0000
C    0.6251   -0.4410    0.0000
C   -0.6251    0.4410    0.0000
C   -1.8734   -0.4438    0.0000
C   -3.1236    0.4381   -0.0000
C   -4.3718   -0.4466    0.0000
C   -5.6221    0.4353   -0.0000
C   -6.8703   -0.4495    0.0000
C   -8.1206    0.4324   -0.0000
C   -9.3688   -0.4523    0.0000
C  -10.6190    0.4296   -0.0000
C  -11.8673   -0.4552    0.0000
C  -13.1175    0.4268   -0.0000
C  -14.3657   -0.4580    0.0000
C  -15.6160    0.4239   -0.0000
C  -16.8642   -0.4608    0.0000
C  -18.1145    0.4211   -0.0000
C  -19.3627   -0.4637    0.0000
C  -20.6129    0.4182   -0.0000
C  -21.8612   -0.4665    0.0000
C  -23.1114    0.4154   -0.0000
C  -24.3597   -0.4694    0.0000
C  -25.6099    0.4126   -0.0000
C  -26.8581   -0.4722    0.0000
C  -28.1084    0.4097   -0.0000
H   28.9976    0.2206    0.0000
H   28.1091   -1.0390    0.8900
H   28.1091   -1.0390   -0.8900
H   26.8574    1.1015    0.8900
H   26.8574    1.1015   -0.8900
H   25.6106   -1.0419   -0.8900
H   25.6106   -1.0419    0.8900
H   24.3589    1.0987    0.8900
H   24.3589    1.0987   -0.8900
H   23.1121   -1.0447   -0.8900
H   23.1121   -1.0447    0.8900
H   21.8605    1.0958    0.8900
H   21.8605    1.0958   -0.8900
H   20.6137   -1.0475   -0.8900
H   20.6137   -1.0475    0.8900
H   19.3620    1.0930    0.8900
H   19.3620    1.0930   -0.8900
H   18.1152   -1.0504   -0.8900
H   18.1152   -1.0504    0.8900
H   16.8635    1.0902    0.8900
H   16.8635    1.0902   -0.8900
H   15.6167   -1.0532   -0.8900
H   15.6167   -1.0532    0.8900
H   14.3650    1.0873    0.8900
H   14.3650    1.0873   -0.8900
H   13.1182   -1.0561   -0.8900
H   13.1182   -1.0561    0.8900
H   11.8666    1.0845    0.8900
H   11.8666    1.0845   -0.8900
H   10.6197   -1.0589   -0.8900
H   10.6197   -1.0589    0.8900
H    9.3681    1.0816    0.8900
H    9.3681    1.0816   -0.8900
H    8.1213   -1.0618   -0.8900
H    8.1213   -1.0618    0.8900
H    6.8696    1.0788    0.8900
H    6.8696    1.0788   -0.8900
H    5.6228   -1.0646   -0.8900
H    5.6228   -1.0646    0.8900
H    4.3711    1.0760    0.8900
H    4.3711    1.0760   -0.8900
H    3.1243   -1.0674   -0.8900
H    3.1243   -1.0674    0.8900
H    1.8726    1.0731    0.8900
H    1.8726    1.0731   -0.8900
H    0.6258   -1.0703   -0.8900
H    0.6258   -1.0703    0.8900
H   -0.6258    1.0703    0.8900
H   -0.6258    1.0703   -0.8900
H   -1.8726   -1.0731   -0.8900
H   -1.8726   -1.0731    0.8900
H   -3.1243    1.0674    0.8900
H   -3.1243    1.0674   -0.8900
H   -4.3711   -1.0760   -0.8900
H   -4.3711   -1.0760    0.8900
H   -5.6228    1.0646    0.8900
H   -5.6228    1.0646   -0.8900
H   -6.8696   -1.0788   -0.8900
H   -6.8696   -1.0788    0.8900
H   -8.1213    1.0618    0.8900
H   -8.1213    1.0618   -0.8900
H   -9.3681   -1.0816   -0.8900
H   -9.3681   -1.0816    0.8900
H  -10.6197    1.0589    0.8900
H  -10.6197    1.0589   -0.8900
H  -11.8666   -1.0845   -0.8900
H  -11.8666   -1.0845    0.8900
H  -13.1182    1.0561    0.8900
H  -13.1182    1.0561   -0.8900
H  -14.3650   -1.0873   -0.8900
H  -14.3650   -1.0873    0.8900
H  -15.6167    1.0532    0.8900
H  -15.6167    1.0532   -0.8900
H  -16.8635   -1.0902   -0.8900
H  -16.8635   -1.0902    0.8900
H  -18.1152    1.0504    0.8900
H  -18.1152    1.0504   -0.8900
H  -19.3620   -1.0930   -0.8900
H  -19.3620   -1.0930    0.8900
H  -20.6137    1.0475    0.8900
H  -20.6137    1.0475   -0.8900
H  -21.8605   -1.0958   -0.8900
H  -21.8605   -1.0958    0.8900
H  -23.1121    1.0447    0.8900
H  -23.1121    1.0447   -0.8900
H  -24.3589   -1.0987   -0.8900
H  -24.3589   -1.0987    0.8900
H  -25.6106    1.0419    0.8900
H  -25.6106    1.0419   -0.8900
H  -26.8574   -1.1015   -0.8900
H  -26.8574   -1.1015    0.8900
H  -28.1091    1.0390    0.8900
H  -28.1091    1.0390   -0.8900
H  -28.9976   -0.2206    0.0000
