230
C76H154
C   46.8467   -0.4221   -0.0000
C   45.5971    0.4607    0.0000
C   44.3482   -0.4231   -0.0000
C   43.0986    0.4597    0.0000
C   41.8497   -0.4242   -0.0000
C   40.6001    0.4586    0.0000
C   39.3512   -0.4252   -0.0000
C   38.1016    0.4576    0.0000
C   36.8528   -0.4263   -0.0000
C   35.6031    0.4565    0.0000
C   34.3543   -0.4273   -0.0000
C   33.1047    0.4555    0.0000
C   31.8558   -0.4284   -0.0000
C   30.6062    0.4545    0.0000
C   29.3573   -0.4294   -0.0000
C   28.1077    0.4534    0.0000
C   26.8588   -0.4305   -0.0000
C   25.6092    0.4524    0.0000
C   24.3604   -0.4315   -0.0000
C   23.1107    0.4513    0.0000
C   21.8619   -0.4325   -0.0000
C   20.6123    0.4503    0.0000
C   19.3634   -0.4336   -0.0000
C   18.1138    0.4492    0.0000
C   16.8649   -0.4346   -0.0000
C   15.6153    0.4482    0.0000
C   14.3664   -0.4357   -0.0000
C   13.1168    0.4472    0.0000
C   11.8680   -0.4367   -0.0000
C   10.6184    0.4461    0.0000
C    9.3695   -0.4378   -0.0000
C    8.1199    0.4451    0.0000
C    6.8710   -0.4388   -0.0000
C    5.6214    0.4440    0.0000
C    4.3725   -0.4398   -0.0000
C    3.1229    0.4430    0.0000
C    1.8740   -0.4409   -0.0000
C    0.6244    0.4419    0.0000
C   -0.6244   -0.4419    0.0000
C   -1.8740    0.4409   -0.0000
C   -3.1229   -0.4430    0.0000
C   -4.3725    0.4398   -0.0000
C   -5.6214   -0.4440    0.0000
C   -6.8710    0.4388   -0.0000
C   -8.1199   -0.4451    0.0000
C   -9.3695    0.4378   -0.0000
C  -10.6184   -0.4461    0.0000
C  -11.8680    0.4367   -0.0000
C  -13.1168   -0.4472    0.0000
C  -14.3664    0.4357   -0.0000
C  -15.6153   -0.4482    0.0000
C  -16.8649    0.4346   -0.0000
C  -18.1138   -0.4492    0.0000
C  -19.3634    0.4336   -0.0000
C  -20.6123   -0.4503    0.0000
C  -21.8619    0.4325   -0.0000
C  -23.1107   -0.4513    0.0000
C  -24.3604    0.4315   -0.0000
C  -25.6092   -0.4524    0.0000
C  -26.8588    0.4305   -0.0000
C  -28.1077   -0.4534    0.0000
C  -29.3573    0.4294   -0.0000
C  -30.6062   -0.4545    0.0000
C  -31.8558    0.4284   -0.0000
C  -33.1047   -0.4555    0.0000
C  -34.3543    0.4273   -0.0000
C  -35.6031   -0.4565    0.0000
C  -36.8528    0.4263   -0.0000
C  -38.1016   -0.4576    0.0000
C  -39.3512    0.4252   -0.0000
C  -40.6001   -0.4586    0.0000
C  -41.8497    0.4242   -0.0000
C  -43.0986   -0.4597    0.0000
C  -44.3482    0.4231   -0.0000
C  -45.5971   -0.4607    0.0000
C  -46.8467    0.4221   -0.0000
H   47.7364    0.2076    0.0000
H   46.8469   -1.0514    0.8900
H   46.8469   -1.0514   -0.8900
H   45.5968    1.0900    0.8900
H   45.5968    1.0900   -0.8900
H   44.3485   -1.0525   -0.8900
H   44.3485   -1.0525    0.8900
H   43.0983    1.0890    0.8900
H   43.0983    1.0890   -0.8900
H   41.8500   -1.0535   -0.8900
H   41.8500   -1.0535    0.8900
H   40.5998    1.0879    0.8900
H   40.5998    1.0879   -0.8900
H   39.3515   -1.0545   -0.8900
H   39.3515   -1.0545    0.8900
H   38.1014    1.0869    0.8900
H   38.1014    1.0869   -0.8900
H   36.8530   -1.0556   -0.8900
H   36.8530   -1.0556    0.8900
H   35.6029    1.0859    0.8900
H   35.6029    1.0859   -0.8900
H   34.3545   -1.0566   -0.8900
H   34.3545   -1.0566    0.8900
H   33.1044    1.0848    0.8900
H   33.1044    1.0848   -0.8900
H   31.8561   -1.0577   -0.8900
H   31.8561   -1.0577    0.8900
H   30.6059    1.0838    0.8900
H   30.6059    1.0838   -0.8900
H   29.3576   -1.0587   -0.8900
H   29.3576   -1.0587    0.8900
H   28.1074    1.0827    0.8900
H   28.1074    1.0827   -0.8900
H   26.8591   -1.0598   -0.8900
H   26.8591   -1.0598    0.8900
H   25.6090    1.0817    0.8900
H   25.6090    1.0817   -0.8900
H   24.3606   -1.0608   -0.8900
H   24.3606   -1.0608    0.8900
H   23.1105    1.0806    0.8900
H   23.1105    1.0806   -0.8900
H   21.8621   -1.0618   -0.8900
H   21.8621   -1.0619    0.8900
H   20.6120    1.0796    0.8900
H   20.6120    1.0796   -0.8900
H   19.3637   -1.0629   -0.8900
H   19.3637   -1.0629    0.8900
H   18.1135    1.0786    0.8900
H   18.1135    1.0786   -0.8900
H   16.8652   -1.0639   -0.8900
H   16.8652   -1.0639    0.8900
H   15.6150    1.0775    0.8900
H   15.6150    1.0775   -0.8900
H   14.3667   -1.0650   -0.8900
H   14.3667   -1.0650    0.8900
H   13.1166    1.0765    0.8900
H   13.1166    1.0765   -0.8900
H   11.8682   -1.0660   -0.8900
H   11.8682   -1.0660    0.8900
H   10.6181    1.0754    0.8900
H   10.6181    1.0754   -0.8900
H    9.3697   -1.0671   -0.8900
H    9.3697   -1.0671    0.8900
H    8.1196    1.0744    0.8900
H    8.1196    1.0744   -0.8900
H    6.8713   -1.0681   -0.8900
H    6.8713   -1.0681    0.8900
H    5.6211    1.0733    0.8900
H    5.6211    1.0733   -0.8900
H    4.3728   -1.0692   -0.8900
H    4.3728   -1.0692    0.8900
H    3.1227    1.0723    0.8900
H    3.1227    1.0723   -0.8900
H    1.8743   -1.0702   -0.8900
H    1.8743   -1.0702    0.8900
H    0.6242    1.0712    0.8900
H    0.6242    1.0712   -0.8900
H   -0.6242   -1.0712   -0.8900
H   -0.6242   -1.0712    0.8900
H   -1.8743    1.0702    0.8900
H   -1.8743    1.0702   -0.8900
H   -3.1227   -1.0723   -0.8900
H   -3.1227   -1.0723    0.8900
H   -4.3728    1.0692    0.8900
H   -4.3728    1.0692   -0.8900
H   -5.6211   -1.0733   -0.8900
H   -5.6211   -1.0733    0.8900
H   -6.8713    1.0681    0.8900
H   -6.8713    1.0681   -0.8900
H   -8.1196   -1.0744   -0.8900
H   -8.1196   -1.0744    0.8900
H   -9.3697    1.0671    0.8900
H   -9.3697    1.0671   -0.8900
H  -10.6181   -1.0754   -0.8900
H  -10.6181   -1.0754    0.8900
H  -11.8682    1.0660    0.8900
H  -11.8682    1.0660   -0.8900
H  -13.1166   -1.0765   -0.8900
H  -13.1166   -1.0765    0.8900
H  -14.3667    1.0650    0.8900
H  -14.3667    1.0650   -0.8900
H  -15.6150   -1.0775   -0.8900
H  -15.6150   -1.0775    0.8900
H  -16.8652    1.0639    0.8900
H  -16.8652    1.0639   -0.8900
H  -18.1135   -1.0786   -0.8900
H  -18.1135   -1.0786    0.8900
H  -19.3637    1.0629    0.8900
H  -19.3637    1.0629   -0.8900
H  -20.6120   -1.0796   -0.8900
H  -20.6120   -1.0796    0.8900
H  -21.8621    1.0619    0.8900
H  -21.8621    1.0618   -0.8900
H  -23.1105   -1.0806   -0.8900
H  -23.1105   -1.0806    0.8900
H  -24.3606    1.0608    0.8900
H  -24.3606    1.0608   -0.8900
H  -25.6090   -1.0817   -0.8900
H  -25.6090   -1.0817    0.8900
H  -26.8591    1.0598    0.8900
H  -26.8591    1.0598   -0.8900
H  -28.1074   -1.0827   -0.8900
H  -28.1074   -1.0827    0.8900
H  -29.3576    1.0587    0.8900
H  -29.3576    1.0587   -0.8900
H  -30.6059   -1.0838   -0.8900
H  -30.6059   -1.0838    0.8900
H  -31.8561    1.0577    0.8900
H  -31.8561    1.0577   -0.8900
H  -33.1044   -1.0848   -0.8900
H  -33.1044   -1.0848    0.8900
H  -34.3545    1.0566    0.8900
H  -34.3545    1.0566   -0.8900
H  -35.6029   -1.0859   -0.8900
H  -35.6029   -1.0859    0.8900
H  -36.8530    1.0556    0.8900
H  -36.8530    1.0556   -0.8900
H  -38.1014   -1.0869   -0.8900
H  -38.1014   -1.0869    0.8900
H  -39.3515    1.0545    0.8900
H  -39.3515    1.0545   -0.8900
H  -40.5998   -1.0879   -0.8900
H  -40.5998   -1.0879    0.8900
H  -41.8500    1.0535    0.8900
H  -41.8500    1.0535   -0.8900
H  -43.0983   -1.0890   -0.8900
H  -43.0983   -1.0890    0.8900
H  -44.3485    1.0525    0.8900
H  -44.3485    1.0525   -0.8900
H  -45.5968   -1.0900   -0.8900
H  -45.5968   -1.0900    0.8900
H  -47.7364   -0.2076    0.0000
H  -46.8469    1.0514    0.8900
H  -46.8469    1.0514   -0.8900
