182
C60H122
C   36.8529   -0.4170   -0.0000
C   35.6030    0.4655    0.0000
C   34.3544   -0.4187   -0.0000
C   33.1045    0.4638    0.0000
C   31.8559   -0.4203   -0.0000
C   30.6061    0.4622    0.0000
C   29.3574   -0.4220   -0.0000
C   28.1076    0.4605    0.0000
C   26.8589   -0.4237   -0.0000
C   25.6091    0.4588    0.0000
C   24.3605   -0.4254   -0.0000
C   23.1106    0.4571    0.0000
C   21.8620   -0.4270   -0.0000
C   20.6122    0.4555    0.0000
C   19.3635   -0.4287   -0.0000
C   18.1137    0.4538    0.0000
C   16.8650   -0.4304   -0.0000
C   15.6152    0.4521    0.0000
C   14.3665   -0.4321   -0.0000
C   13.1167    0.4505    0.0000
C   11.8681   -0.4337   -0.0000
C   10.6182    0.4488    0.0000
C    9.3696   -0.4354   -0.0000
C    8.1198    0.4471    0.0000
C    6.8711   -0.4371   -0.0000
C    5.6213    0.4454    0.0000
C    4.3726   -0.4387   -0.0000
C    3.1228    0.4438    0.0000
C    1.8742   -0.4404   -0.0000
C    0.6243    0.4421    0.0000
C   -0.6243   -0.4421   -0.0000
C   -1.8742    0.4404    0.0000
C   -3.1228   -0.4438    0.0000
C   -4.3726    0.4387   -0.0000
C   -5.6213   -0.4454    0.0000
C   -6.8711    0.4371   -0.0000
C   -8.1198   -0.4471    0.0000
C   -9.3696    0.4354   -0.0000
C  -10.6182   -0.4488    0.0000
C  -11.8681    0.4337   -0.0000
C  -13.1167   -0.4505    0.0000
C  -14.3665    0.4321   -0.0000
C  -15.6152   -0.4521    0.0000
C  -16.8650    0.4304   -0.0000
C  -18.1137   -0.4538    0.0000
C  -19.3635    0.4287   -0.0000
C  -20.6122   -0.4555    0.0000
C  -21.8620    0.4270   -0.0000
C  -23.1106   -0.4571    0.0000
C  -24.3605    0.4254   -0.0000
C  -25.6091   -0.4588    0.0000
C  -26.8589    0.4237   -0.0000
C  -28.1076   -0.4605    0.0000
C  -29.3574    0.4220   -0.0000
C  -30.6061   -0.4622    0.0000
C  -31.8559    0.4203   -0.0000
C  -33.1045   -0.4638    0.0000
C  -34.3544    0.4187   -0.0000
C  -35.6030   -0.4655    0.0000
C  -36.8529    0.4170   -0.0000
H   36.8533   -1.0463    0.8900
H   36.8533   -1.0463   -0.8900
H   37.7424    0.2129    0.0000
H   35.6026    1.0948    0.8900
H   35.6026    1.0948   -0.8900
H   34.3548   -1.0480   -0.8900
H   34.3548   -1.0480    0.8900
H   33.1041    1.0931    0.8900
H   33.1041    1.0931   -0.8900
H   31.8563   -1.0497   -0.8900
H   31.8563   -1.0497    0.8900
H   30.6056    1.0915    0.8900
H   30.6056    1.0915   -0.8900
H   29.3578   -1.0513   -0.8900
H   29.3578   -1.0513    0.8900
H   28.1072    1.0898    0.8900
H   28.1072    1.0898   -0.8900
H   26.8594   -1.0530   -0.8900
H   26.8594   -1.0530    0.8900
H   25.6087    1.0881    0.8900
H   25.6087    1.0881   -0.8900
H   24.3609   -1.0547   -0.8900
H   24.3609   -1.0547    0.8900
H   23.1102    1.0865    0.8900
H   23.1102    1.0865   -0.8900
H   21.8624   -1.0563   -0.8900
H   21.8624   -1.0563    0.8900
H   20.6117    1.0848    0.8900
H   20.6117    1.0848   -0.8900
H   19.3639   -1.0580   -0.8900
H   19.3639   -1.0580    0.8900
H   18.1133    1.0831    0.8900
H   18.1133    1.0831   -0.8900
H   16.8654   -1.0597   -0.8900
H   16.8654   -1.0597    0.8900
H   15.6148    1.0814    0.8900
H   15.6148    1.0814   -0.8900
H   14.3670   -1.0614   -0.8900
H   14.3670   -1.0614    0.8900
H   13.1163    1.0798    0.8900
H   13.1163    1.0798   -0.8900
H   11.8685   -1.0630   -0.8900
H   11.8685   -1.0630    0.8900
H   10.6178    1.0781    0.8900
H   10.6178    1.0781   -0.8900
H    9.3700   -1.0647   -0.8900
H    9.3700   -1.0647    0.8900
H    8.1193    1.0764    0.8900
H    8.1193    1.0764   -0.8900
H    6.8715   -1.0664   -0.8900
H    6.8715   -1.0664    0.8900
H    5.6209    1.0747    0.8900
H    5.6209    1.0747   -0.8900
H    4.3731   -1.0681   -0.8900
H    4.3731   -1.0681    0.8900
H    3.1224    1.0731    0.8900
H    3.1224    1.0731   -0.8900
H    1.8746   -1.0697   -0.8900
H    1.8746   -1.0697    0.8900
H    0.6239    1.0714    0.8900
H    0.6239    1.0714   -0.8900
H   -0.6239   -1.0714   -0.8900
H   -0.6239   -1.0714    0.8900
H   -1.8746    1.0697    0.8900
H   -1.8746    1.0697   -0.8900
H   -3.1224   -1.0731   -0.8900
H   -3.1224   -1.0731    0.8900
H   -4.3731    1.0681    0.8900
H   -4.3731    1.0681   -0.8900
H   -5.6209   -1.0747   -0.8900
H   -5.6209   -1.0747    0.8900
H   -6.8715    1.0664    0.8900
H   -6.8715    1.0664   -0.8900
H   -8.1193   -1.0764   -0.8900
H   -8.1193   -1.0764    0.8900
H   -9.3700    1.0647    0.8900
H   -9.3700    1.0647   -0.8900
H  -10.6178   -1.0781   -0.8900
H  -10.6178   -1.0781    0.8900
H  -11.8685    1.0630    0.8900
H  -11.8685    1.0630   -0.8900
H  -13.1163   -1.0798   -0.8900
H  -13.1163   -1.0798    0.8900
H  -14.3670    1.0614    0.8900
H  -14.3670    1.0614   -0.8900
H  -15.6148   -1.0814   -0.8900
H  -15.6148   -1.0814    0.8900
H  -16.8654    1.0597    0.8900
H  -16.8654    1.0597   -0.8900
H  -18.1133   -1.0831   -0.8900
H  -18.1133   -1.0831    0.8900
H  -19.3639    1.0580    0.8900
H  -19.3639    1.0580   -0.8900
H  -20.6117   -1.0848   -0.8900
H  -20.6117   -1.0848    0.8900
H  -21.8624    1.0563    0.8900
H  -21.8624    1.0563   -0.8900
H  -23.1102   -1.0865   -0.8900
H  -23.1102   -1.0865    0.8900
H  -24.3609    1.0547    0.8900
H  -24.3609    1.0547   -0.8900
H  -25.6087   -1.0881   -0.8900
H  -25.6087   -1.0881    0.8900
H  -26.8594    1.0530    0.8900
H  -26.8594    1.0530   -0.8900
H  -28.1072   -1.0898   -0.8900
H  -28.1072   -1.0898    0.8900
H  -29.3578    1.0513    0.8900
H  -29.3578    1.0513   -0.8900
H  -30.6056   -1.0915   -0.8900
H  -30.6056   -1.0915    0.8900
H  -31.8563    1.0497    0.8900
H  -31.8563    1.0497   -0.8900
H  -33.1041   -1.0931   -0.8900
H  -33.1041   -1.0931    0.8900
H  -34.3548    1.0480    0.8900
H  -34.3548    1.0480   -0.8900
H  -35.6026   -1.0948   -0.8900
H  -35.6026   -1.0948    0.8900
H  -36.8533    1.0463   -0.8900
H  -37.7424   -0.2129    0.0000
H  -36.8533    1.0463    0.8900
