212
C70H142
C   43.0990   -0.4205   -0.0000
C   41.8493    0.4623    0.0000
C   40.6005   -0.4217   -0.0000
C   39.3508    0.4610    0.0000
C   38.1020   -0.4229   -0.0000
C   36.8523    0.4598    0.0000
C   35.6035   -0.4241   -0.0000
C   34.3539    0.4586    0.0000
C   33.1051   -0.4254   -0.0000
C   31.8554    0.4574    0.0000
C   30.6066   -0.4266   -0.0000
C   29.3569    0.4561    0.0000
C   28.1081   -0.4278   -0.0000
C   26.8584    0.4549    0.0000
C   25.6096   -0.4291   -0.0000
C   24.3600    0.4537    0.0000
C   23.1111   -0.4303   -0.0000
C   21.8615    0.4524    0.0000
C   20.6127   -0.4315   -0.0000
C   19.3630    0.4512    0.0000
C   18.1142   -0.4328   -0.0000
C   16.8645    0.4500    0.0000
C   15.6157   -0.4340   -0.0000
C   14.3660    0.4487    0.0000
C   13.1172   -0.4352   -0.0000
C   11.8676    0.4475    0.0000
C   10.6188   -0.4364   -0.0000
C    9.3691    0.4463    0.0000
C    8.1203   -0.4377   -0.0000
C    6.8706    0.4451    0.0000
C    5.6218   -0.4389   -0.0000
C    4.3721    0.4438    0.0000
C    3.1233   -0.4401   -0.0000
C    1.8736    0.4426    0.0000
C    0.6248   -0.4414   -0.0000
C   -0.6248    0.4414    0.0000
C   -1.8736   -0.4426   -0.0000
C   -3.1233    0.4401    0.0000
C   -4.3721   -0.4438    0.0000
C   -5.6218    0.4389   -0.0000
C   -6.8706   -0.4451    0.0000
C   -8.1203    0.4377   -0.0000
C   -9.3691   -0.4463    0.0000
C  -10.6188    0.4364   -0.0000
C  -11.8676   -0.4475    0.0000
C  -13.1172    0.4352   -0.0000
C  -14.3660   -0.4487    0.0000
C  -15.6157    0.4340   -0.0000
C  -16.8645   -0.4500    0.0000
C  -18.1142    0.4328   -0.0000
C  -19.3630   -0.4512    0.0000
C  -20.6127    0.4315   -0.0000
C  -21.8615   -0.4524    0.0000
C  -23.1111    0.4303   -0.0000
C  -24.3600   -0.4537    0.0000
C  -25.6096    0.4291   -0.0000
C  -26.8584   -0.4549    0.0000
C  -28.1081    0.4278   -0.0000
C  -29.3569   -0.4561    0.0000
C  -30.6066    0.4266   -0.0000
C  -31.8554   -0.4574    0.0000
C  -33.1051    0.4254   -0.0000
C  -34.3539   -0.4586    0.0000
C  -35.6035    0.4241   -0.0000
C  -36.8523   -0.4598    0.0000
C  -38.1020    0.4229   -0.0000
C  -39.3508   -0.4610    0.0000
C  -40.6005    0.4217   -0.0000
C  -41.8493   -0.4623    0.0000
C  -43.0990    0.4205   -0.0000
H   43.0993   -1.0498    0.8900
H   43.0993   -1.0498   -0.8900
H   43.9887    0.2093    0.0000
H   41.8490    1.0916    0.8900
H   41.8490    1.0916   -0.8900
H   40.6008   -1.0510   -0.8900
H   40.6008   -1.0510    0.8900
H   39.3505    1.0904    0.8900
H   39.3505    1.0904   -0.8900
H   38.1023   -1.0522   -0.8900
H   38.1023   -1.0522    0.8900
H   36.8520    1.0891    0.8900
H   36.8520    1.0891   -0.8900
H   35.6039   -1.0535   -0.8900
H   35.6039   -1.0535    0.8900
H   34.3536    1.0879    0.8900
H   34.3536    1.0879   -0.8900
H   33.1054   -1.0547   -0.8900
H   33.1054   -1.0547    0.8900
H   31.8551    1.0867    0.8900
H   31.8551    1.0867   -0.8900
H   30.6069   -1.0559   -0.8900
H   30.6069   -1.0559    0.8900
H   29.3566    1.0854    0.8900
H   29.3566    1.0854   -0.8900
H   28.1084   -1.0571   -0.8900
H   28.1084   -1.0571    0.8900
H   26.8581    1.0842    0.8900
H   26.8581    1.0842   -0.8900
H   25.6099   -1.0584   -0.8900
H   25.6099   -1.0584    0.8900
H   24.3596    1.0830    0.8900
H   24.3596    1.0830   -0.8900
H   23.1115   -1.0596   -0.8900
H   23.1115   -1.0596    0.8900
H   21.8612    1.0817    0.8900
H   21.8612    1.0817   -0.8900
H   20.6130   -1.0608   -0.8900
H   20.6130   -1.0608    0.8900
H   19.3627    1.0805    0.8900
H   19.3627    1.0805   -0.8900
H   18.1145   -1.0621   -0.8900
H   18.1145   -1.0621    0.8900
H   16.8642    1.0793    0.8900
H   16.8642    1.0793   -0.8900
H   15.6160   -1.0633   -0.8900
H   15.6160   -1.0633    0.8900
H   14.3657    1.0781    0.8900
H   14.3657    1.0781   -0.8900
H   13.1175   -1.0645   -0.8900
H   13.1175   -1.0645    0.8900
H   11.8672    1.0768    0.8900
H   11.8672    1.0768   -0.8900
H   10.6191   -1.0658   -0.8900
H   10.6191   -1.0658    0.8900
H    9.3688    1.0756    0.8900
H    9.3688    1.0756   -0.8900
H    8.1206   -1.0670   -0.8900
H    8.1206   -1.0670    0.8900
H    6.8703    1.0744    0.8900
H    6.8703    1.0744   -0.8900
H    5.6221   -1.0682   -0.8900
H    5.6221   -1.0682    0.8900
H    4.3718    1.0731    0.8900
H    4.3718    1.0731   -0.8900
H    3.1236   -1.0694   -0.8900
H    3.1236   -1.0694    0.8900
H    1.8733    1.0719    0.8900
H    1.8733    1.0719   -0.8900
H    0.6251   -1.0707   -0.8900
H    0.6251   -1.0707    0.8900
H   -0.6251    1.0707    0.8900
H   -0.6251    1.0707   -0.8900
H   -1.8733   -1.0719   -0.8900
H   -1.8733   -1.0719    0.8900
H   -3.1236    1.0694    0.8900
H   -3.1236    1.0694   -0.8900
H   -4.3718   -1.0731   -0.8900
H   -4.3718   -1.0731    0.8900
H   -5.6221    1.0682    0.8900
H   -5.6221    1.0682   -0.8900
H   -6.8703   -1.0744   -0.8900
H   -6.8703   -1.0744    0.8900
H   -8.1206    1.0670    0.8900
H   -8.1206    1.0670   -0.8900
H   -9.3688   -1.0756   -0.8900
H   -9.3688   -1.0756    0.8900
H  -10.6191    1.0658    0.8900
H  -10.6191    1.0658   -0.8900
H  -11.8672   -1.0768   -0.8900
H  -11.8672   -1.0768    0.8900
H  -13.1175    1.0645    0.8900
H  -13.1175    1.0645   -0.8900
H  -14.3657   -1.0781   -0.8900
H  -14.3657   -1.0781    0.8900
H  -15.6160    1.0633    0.8900
H  -15.6160    1.0633   -0.8900
H  -16.8642   -1.0793   -0.8900
H  -16.8642   -1.0793    0.8900
H  -18.1145    1.0621    0.8900
H  -18.1145    1.0621   -0.8900
H  -19.3627   -1.0805   -0.8900
H  -19.3627   -1.0805    0.8900
H  -20.6130    1.0608    0.8900
H  -20.6130    1.0608   -0.8900
H  -21.8612   -1.0817   -0.8900
H  -21.8612   -1.0817    0.8900
H  -23.1115    1.0596    0.8900
H  -23.1115    1.0596   -0.8900
H  -24.3596   -1.0830   -0.8900
H  -24.3596   -1.0830    0.8900
H  -25.6099    1.0584    0.8900
H  -25.6099    1.0584   -0.8900
H  -26.8581   -1.0842   -0.8900
H  -26.8581   -1.0842    0.8900
H  -28.1084    1.0571    0.8900
H  -28.1084    1.0571   -0.8900
H  -29.3566   -1.0854   -0.8900
H  -29.3566   -1.0854    0.8900
H  -30.6069    1.0559    0.8900
H  -30.6069    1.0559   -0.8900
H  -31.8551   -1.0867   -0.8900
H  -31.8551   -1.0867    0.8900
H  -33.1054    1.0547    0.8900
H  -33.1054    1.0547   -0.8900
H  -34.3536   -1.0879   -0.8900
H  -34.3536   -1.0879    0.8900
H  -35.6039    1.0535    0.8900
H  -35.6039    1.0535   -0.8900
H  -36.8520   -1.0891   -0.8900
H  -36.8520   -1.0891    0.8900
H  -38.1023    1.0522    0.8900
H  -38.1023    1.0522   -0.8900
H  -39.3505   -1.0904   -0.8900
H  -39.3505   -1.0904    0.8900
H  -40.6008    1.0510    0.8900
H  -40.6008    1.0510   -0.8900
H  -41.8490   -1.0916   -0.8900
H  -41.8490   -1.0916    0.8900
H  -43.9887   -0.2093    0.0000
H  -43.0993    1.0498    0.8900
H  -43.0993    1.0498   -0.8900
