272
C90H182
C   55.5913   -0.4251   -0.0000
C   54.3418    0.4579    0.0000
C   53.0928   -0.4258   -0.0000
C   51.8433    0.4571    0.0000
C   50.5943   -0.4266   -0.0000
C   49.3448    0.4564    0.0000
C   48.0959   -0.4273   -0.0000
C   46.8464    0.4556    0.0000
C   45.5974   -0.4281   -0.0000
C   44.3479    0.4549    0.0000
C   43.0989   -0.4288   -0.0000
C   41.8494    0.4542    0.0000
C   40.6004   -0.4296   -0.0000
C   39.3509    0.4534    0.0000
C   38.1019   -0.4303   -0.0000
C   36.8524    0.4527    0.0000
C   35.6035   -0.4311   -0.0000
C   34.3540    0.4519    0.0000
C   33.1050   -0.4318   -0.0000
C   31.8555    0.4512    0.0000
C   30.6065   -0.4325   -0.0000
C   29.3570    0.4504    0.0000
C   28.1080   -0.4333   -0.0000
C   26.8585    0.4497    0.0000
C   25.6095   -0.4340   -0.0000
C   24.3600    0.4489    0.0000
C   23.1111   -0.4348   -0.0000
C   21.8616    0.4482    0.0000
C   20.6126   -0.4355   -0.0000
C   19.3631    0.4474    0.0000
C   18.1141   -0.4363   -0.0000
C   16.8646    0.4467    0.0000
C   15.6156   -0.4370   -0.0000
C   14.3661    0.4460    0.0000
C   13.1171   -0.4378   -0.0000
C   11.8676    0.4452    0.0000
C   10.6187   -0.4385   -0.0000
C    9.3692    0.4445    0.0000
C    8.1202   -0.4393   -0.0000
C    6.8707    0.4437    0.0000
C    5.6217   -0.4400   -0.0000
C    4.3722    0.4430    0.0000
C    3.1232   -0.4407   -0.0000
C    1.8737    0.4422    0.0000
C    0.6248   -0.4415    0.0000
C   -0.6248    0.4415    0.0000
C   -1.8737   -0.4422    0.0000
C   -3.1232    0.4407   -0.0000
C   -4.3722   -0.4430    0.0000
C   -5.6217    0.4400   -0.0000
C   -6.8707   -0.4437    0.0000
C   -8.1202    0.4393   -0.0000
C   -9.3692   -0.4445    0.0000
C  -10.6187    0.4385   -0.0000
C  -11.8676   -0.4452    0.0000
C  -13.1171    0.4378   -0.0000
C  -14.3661   -0.4460    0.0000
C  -15.6156    0.4370   -0.0000
C  -16.8646   -0.4467    0.0000
C  -18.1141    0.4363   -0.0000
C  -19.3631   -0.4474    0.0000
C  -20.6126    0.4355   -0.0000
C  -21.8616   -0.4482    0.0000
C  -23.1111    0.4348   -0.0000
C  -24.3600   -0.4489    0.0000
C  -25.6095    0.4340   -0.0000
C  -26.8585   -0.4497    0.0000
C  -28.1080    0.4333   -0.0000
C  -29.3570   -0.4504    0.0000
C  -30.6065    0.4325   -0.0000
C  -31.8555   -0.4512    0.0000
C  -33.1050    0.4318   -0.0000
C  -34.3540   -0.4519    0.0000
C  -35.6035    0.4311   -0.0000
C  -36.8524   -0.4527    0.0000
C  -38.1019    0.4303   -0.0000
C  -39.3509   -0.4534    0.0000
C  -40.6004    0.4296   -0.0000
C  -41.8494   -0.4542    0.0000
C  -43.0989    0.4288   -0.0000
C  -44.3479   -0.4549    0.0000
C  -45.5974    0.4281   -0.0000
C  -46.8464   -0.4556    0.0000
C  -48.0959    0.4273   -0.0000
C  -49.3448   -0.4564    0.0000
C  -50.5943    0.4266   -0.0000
C  -51.8433   -0.4571    0.0000
C  -53.0928    0.4258   -0.0000
C  -54.3418   -0.4579    0.0000
C  -55.5913    0.4251   -0.0000
H   56.4811    0.2045    0.0000
H   55.5915   -1.0544    0.8900
H   55.5915   -1.0544   -0.8900
H   54.3416    1.0872    0.8900
H   54.3416    1.0872   -0.8900
H   53.0930   -1.0552   -0.8900
H   53.0930   -1.0552    0.8900
H   51.8431    1.0864    0.8900
H   51.8431    1.0864   -0.8900
H   50.5945   -1.0559   -0.8900
H   50.5945   -1.0559    0.8900
H   49.3446    1.0857    0.8900
H   49.3446    1.0857   -0.8900
H   48.0960   -1.0566   -0.8900
H   48.0960   -1.0566    0.8900
H   46.8462    1.0849    0.8900
H   46.8462    1.0850   -0.8900
H   45.5976   -1.0574   -0.8900
H   45.5976   -1.0574    0.8900
H   44.3477    1.0842    0.8900
H   44.3477    1.0842   -0.8900
H   43.0991   -1.0581   -0.8900
H   43.0991   -1.0581    0.8900
H   41.8492    1.0835    0.8900
H   41.8492    1.0835   -0.8900
H   40.6006   -1.0589   -0.8900
H   40.6006   -1.0589    0.8900
H   39.3507    1.0827    0.8900
H   39.3507    1.0827   -0.8900
H   38.1021   -1.0596   -0.8900
H   38.1021   -1.0596    0.8900
H   36.8523    1.0820    0.8900
H   36.8523    1.0820   -0.8900
H   35.6036   -1.0604   -0.8900
H   35.6036   -1.0604    0.8900
H   34.3538    1.0812    0.8900
H   34.3538    1.0812   -0.8900
H   33.1052   -1.0611   -0.8900
H   33.1052   -1.0611    0.8900
H   31.8553    1.0805    0.8900
H   31.8553    1.0805   -0.8900
H   30.6067   -1.0619   -0.8900
H   30.6067   -1.0619    0.8900
H   29.3568    1.0797    0.8900
H   29.3568    1.0797   -0.8900
H   28.1082   -1.0626   -0.8900
H   28.1082   -1.0626    0.8900
H   26.8583    1.0790    0.8900
H   26.8583    1.0790   -0.8900
H   25.6097   -1.0633   -0.8900
H   25.6097   -1.0634    0.8900
H   24.3599    1.0782    0.8900
H   24.3599    1.0782   -0.8900
H   23.1113   -1.0641   -0.8900
H   23.1113   -1.0641    0.8900
H   21.8614    1.0775    0.8900
H   21.8614    1.0775   -0.8900
H   20.6128   -1.0648   -0.8900
H   20.6128   -1.0648    0.8900
H   19.3629    1.0768    0.8900
H   19.3629    1.0768   -0.8900
H   18.1143   -1.0656   -0.8900
H   18.1143   -1.0656    0.8900
H   16.8644    1.0760    0.8900
H   16.8644    1.0760   -0.8900
H   15.6158   -1.0663   -0.8900
H   15.6158   -1.0663    0.8900
H   14.3659    1.0753    0.8900
H   14.3659    1.0753   -0.8900
H   13.1173   -1.0671   -0.8900
H   13.1173   -1.0671    0.8900
H   11.8675    1.0745    0.8900
H   11.8675    1.0745   -0.8900
H   10.6189   -1.0678   -0.8900
H   10.6189   -1.0678    0.8900
H    9.3690    1.0738    0.8900
H    9.3690    1.0738   -0.8900
H    8.1204   -1.0686   -0.8900
H    8.1204   -1.0686    0.8900
H    6.8705    1.0730    0.8900
H    6.8705    1.0730   -0.8900
H    5.6219   -1.0693   -0.8900
H    5.6219   -1.0693    0.8900
H    4.3720    1.0723    0.8900
H    4.3720    1.0723   -0.8900
H    3.1234   -1.0701   -0.8900
H    3.1234   -1.0701    0.8900
H    1.8735    1.0715    0.8900
H    1.8735    1.0715   -0.8900
H    0.6249   -1.0708   -0.8900
H    0.6249   -1.0708    0.8900
H   -0.6249    1.0708    0.8900
H   -0.6249    1.0708   -0.8900
H   -1.8735   -1.0715   -0.8900
H   -1.8735   -1.0715    0.8900
H   -3.1234    1.0701    0.8900
H   -3.1234    1.0701   -0.8900
H   -4.3720   -1.0723   -0.8900
H   -4.3720   -1.0723    0.8900
H   -5.6219    1.0693    0.8900
H   -5.6219    1.0693   -0.8900
H   -6.8705   -1.0730   -0.8900
H   -6.8705   -1.0730    0.8900
H   -8.1204    1.0686    0.8900
H   -8.1204    1.0686   -0.8900
H   -9.3690   -1.0738   -0.8900
H   -9.3690   -1.0738    0.8900
H  -10.6189    1.0678    0.8900
H  -10.6189    1.0678   -0.8900
H  -11.8675   -1.0745   -0.8900
H  -11.8675   -1.0745    0.8900
H  -13.1173    1.0671    0.8900
H  -13.1173    1.0671   -0.8900
H  -14.3659   -1.0753   -0.8900
H  -14.3659   -1.0753    0.8900
H  -15.6158    1.0663    0.8900
H  -15.6158    1.0663   -0.8900
H  -16.8644   -1.0760   -0.8900
H  -16.8644   -1.0760    0.8900
H  -18.1143    1.0656    0.8900
H  -18.1143    1.0656   -0.8900
H  -19.3629   -1.0768   -0.8900
H  -19.3629   -1.0768    0.8900
H  -20.6128    1.0648    0.8900
H  -20.6128    1.0648   -0.8900
H  -21.8614   -1.0775   -0.8900
H  -21.8614   -1.0775    0.8900
H  -23.1113    1.0641    0.8900
H  -23.1113    1.0641   -0.8900
H  -24.3599   -1.0782   -0.8900
H  -24.3599   -1.0782    0.8900
H  -25.6097    1.0634    0.8900
H  -25.6097    1.0633   -0.8900
H  -26.8583   -1.0790   -0.8900
H  -26.8583   -1.0790    0.8900
H  -28.1082    1.0626    0.8900
H  -28.1082    1.0626   -0.8900
H  -29.3568   -1.0797   -0.8900
H  -29.3568   -1.0797    0.8900
H  -30.6067    1.0619    0.8900
H  -30.6067    1.0619   -0.8900
H  -31.8553   -1.0805   -0.8900
H  -31.8553   -1.0805    0.8900
H  -33.1052    1.0611    0.8900
H  -33.1052    1.0611   -0.8900
H  -34.3538   -1.0812   -0.8900
H  -34.3538   -1.0812    0.8900
H  -35.6036    1.0604    0.8900
H  -35.6036    1.0604   -0.8900
H  -36.8523   -1.0820   -0.8900
H  -36.8523   -1.0820    0.8900
H  -38.1021    1.0596    0.8900
H  -38.1021    1.0596   -0.8900
H  -39.3507   -1.0827   -0.8900
H  -39.3507   -1.0827    0.8900
H  -40.6006    1.0589    0.8900
H  -40.6006    1.0589   -0.8900
H  -41.8492   -1.0835   -0.8900
H  -41.8492   -1.0835    0.8900
H  -43.0991    1.0581    0.8900
H  -43.0991    1.0581   -0.8900
H  -44.3477   -1.0842   -0.8900
H  -44.3477   -1.0842    0.8900
H  -45.5976    1.0574    0.8900
H  -45.5976    1.0574   -0.8900
H  -46.8462   -1.0850   -0.8900
H  -46.8462   -1.0849    0.8900
H  -48.0960    1.0566    0.8900
H  -48.0960    1.0566   -0.8900
H  -49.3446   -1.0857   -0.8900
H  -49.3446   -1.0857    0.8900
H  -50.5945    1.0559    0.8900
H  -50.5945    1.0559   -0.8900
H  -51.8431   -1.0864   -0.8900
H  -51.8431   -1.0864    0.8900
H  -53.0930    1.0552    0.8900
H  -53.0930    1.0552   -0.8900
H  -54.3416   -1.0872   -0.8900
H  -54.3416   -1.0872    0.8900
H  -56.4811   -0.2045    0.0000
H  -55.5915    1.0544    0.8900
H  -55.5915    1.0544   -0.8900
