176
C58H118
C   35.6036   -0.4162   -0.0000
C   34.3538    0.4663    0.0000
C   33.1052   -0.4180   -0.0000
C   31.8553    0.4645    0.0000
C   30.6067   -0.4197   -0.0000
C   29.3568    0.4627    0.0000
C   28.1082   -0.4215   -0.0000
C   26.8583    0.4609    0.0000
C   25.6097   -0.4233   -0.0000
C   24.3599    0.4591    0.0000
C   23.1112   -0.4251   -0.0000
C   21.8614    0.4573    0.0000
C   20.6128   -0.4269   -0.0000
C   19.3629    0.4555    0.0000
C   18.1143   -0.4287   -0.0000
C   16.8644    0.4538    0.0000
C   15.6158   -0.4305   -0.0000
C   14.3659    0.4520    0.0000
C   13.1173   -0.4323   -0.0000
C   11.8675    0.4502    0.0000
C   10.6189   -0.4341   -0.0000
C    9.3690    0.4484    0.0000
C    8.1204   -0.4359   -0.0000
C    6.8705    0.4466    0.0000
C    5.6219   -0.4376   -0.0000
C    4.3720    0.4448    0.0000
C    3.1234   -0.4394   -0.0000
C    1.8735    0.4430    0.0000
C    0.6249   -0.4412   -0.0000
C   -0.6249    0.4412    0.0000
C   -1.8735   -0.4430   -0.0000
C   -3.1234    0.4394    0.0000
C   -4.3720   -0.4448    0.0000
C   -5.6219    0.4376   -0.0000
C   -6.8705   -0.4466    0.0000
C   -8.1204    0.4359   -0.0000
C   -9.3690   -0.4484    0.0000
C  -10.6189    0.4341   -0.0000
C  -11.8675   -0.4502    0.0000
C  -13.1173    0.4323   -0.0000
C  -14.3659   -0.4520    0.0000
C  -15.6158    0.4305   -0.0000
C  -16.8644   -0.4538    0.0000
C  -18.1143    0.4287   -0.0000
C  -19.3629   -0.4555    0.0000
C  -20.6128    0.4269   -0.0000
C  -21.8614   -0.4573    0.0000
C  -23.1112    0.4251   -0.0000
C  -24.3599   -0.4591    0.0000
C  -25.6097    0.4233   -0.0000
C  -26.8583   -0.4609    0.0000
C  -28.1082    0.4215   -0.0000
C  -29.3568   -0.4627    0.0000
C  -30.6067    0.4197   -0.0000
C  -31.8553   -0.4645    0.0000
C  -33.1052    0.4180   -0.0000
C  -34.3538   -0.4663    0.0000
C  -35.6036    0.4162   -0.0000
H   35.6041   -1.0455    0.8900
H   35.6041   -1.0455   -0.8900
H   36.4932    0.2138    0.0000
H   34.3533    1.0956    0.8900
H   34.3533    1.0956   -0.8900
H   33.1056   -1.0473   -0.8900
H   33.1056   -1.0473    0.8900
H   31.8548    1.0938    0.8900
H   31.8548    1.0938   -0.8900
H   30.6071   -1.0491   -0.8900
H   30.6071   -1.0491    0.8900
H   29.3564    1.0920    0.8900
H   29.3564    1.0920   -0.8900
H   28.1087   -1.0508   -0.8900
H   28.1087   -1.0509    0.8900
H   26.8579    1.0902    0.8900
H   26.8579    1.0902   -0.8900
H   25.6102   -1.0526   -0.8900
H   25.6102   -1.0526    0.8900
H   24.3594    1.0884    0.8900
H   24.3594    1.0884   -0.8900
H   23.1117   -1.0544   -0.8900
H   23.1117   -1.0544    0.8900
H   21.8609    1.0866    0.8900
H   21.8609    1.0866   -0.8900
H   20.6132   -1.0562   -0.8900
H   20.6132   -1.0562    0.8900
H   19.3624    1.0849    0.8900
H   19.3624    1.0849   -0.8900
H   18.1147   -1.0580   -0.8900
H   18.1147   -1.0580    0.8900
H   16.8640    1.0831    0.8900
H   16.8640    1.0831   -0.8900
H   15.6163   -1.0598   -0.8900
H   15.6163   -1.0598    0.8900
H   14.3655    1.0813    0.8900
H   14.3655    1.0813   -0.8900
H   13.1178   -1.0616   -0.8900
H   13.1178   -1.0616    0.8900
H   11.8670    1.0795    0.8900
H   11.8670    1.0795   -0.8900
H   10.6193   -1.0634   -0.8900
H   10.6193   -1.0634    0.8900
H    9.3685    1.0777    0.8900
H    9.3685    1.0777   -0.8900
H    8.1208   -1.0652   -0.8900
H    8.1208   -1.0652    0.8900
H    6.8700    1.0759    0.8900
H    6.8700    1.0759   -0.8900
H    5.6223   -1.0670   -0.8900
H    5.6223   -1.0670    0.8900
H    4.3716    1.0741    0.8900
H    4.3716    1.0741   -0.8900
H    3.1239   -1.0687   -0.8900
H    3.1239   -1.0687    0.8900
H    1.8731    1.0723    0.8900
H    1.8731    1.0723   -0.8900
H    0.6254   -1.0705   -0.8900
H    0.6254   -1.0705    0.8900
H   -0.6254    1.0705    0.8900
H   -0.6254    1.0705   -0.8900
H   -1.8731   -1.0723   -0.8900
H   -1.8731   -1.0723    0.8900
H   -3.1239    1.0687    0.8900
H   -3.1239    1.0687   -0.8900
H   -4.3716   -1.0741   -0.8900
H   -4.3716   -1.0741    0.8900
H   -5.6223    1.0670    0.8900
H   -5.6223    1.0670   -0.8900
H   -6.8700   -1.0759   -0.8900
H   -6.8700   -1.0759    0.8900
H   -8.1208    1.0652    0.8900
H   -8.1208    1.0652   -0.8900
H   -9.3685   -1.0777   -0.8900
H   -9.3685   -1.0777    0.8900
H  -10.6193    1.0634    0.8900
H  -10.6193    1.0634   -0.8900
H  -11.8670   -1.0795   -0.8900
H  -11.8670   -1.0795    0.8900
H  -13.1178    1.0616    0.8900
H  -13.1178    1.0616   -0.8900
H  -14.3655   -1.0813   -0.8900
H  -14.3655   -1.0813    0.8900
H  -15.6163    1.0598    0.8900
H  -15.6163    1.0598   -0.8900
H  -16.8640   -1.0831   -0.8900
H  -16.8640   -1.0831    0.8900
H  -18.1147    1.0580    0.8900
H  -18.1147    1.0580   -0.8900
H  -19.3624   -1.0849   -0.8900
H  -19.3624   -1.0849    0.8900
H  -20.6132    1.0562    0.8900
H  -20.6132    1.0562   -0.8900
H  -21.8609   -1.0866   -0.8900
H  -21.8609   -1.0866    0.8900
H  -23.1117    1.0544    0.8900
H  -23.1117    1.0544   -0.8900
H  -24.3594   -1.0884   -0.8900
H  -24.3594   -1.0884    0.8900
H  -25.6102    1.0526    0.8900
H  -25.6102    1.0526   -0.8900
H  -26.8579   -1.0902   -0.8900
H  -26.8579   -1.0902    0.8900
H  -28.1087    1.0509    0.8900
H  -28.1087    1.0508   -0.8900
H  -29.3564   -1.0920   -0.8900
H  -29.3564   -1.0920    0.8900
H  -30.6071    1.0491    0.8900
H  -30.6071    1.0491   -0.8900
H  -31.8548   -1.0938   -0.8900
H  -31.8548   -1.0938    0.8900
H  -33.1056    1.0473    0.8900
H  -33.1056    1.0473   -0.8900
H  -34.3533   -1.0956   -0.8900
H  -34.3533   -1.0956    0.8900
H  -36.4932   -0.2138    0.0000
H  -35.6041    1.0455    0.8900
H  -35.6041    1.0455   -0.8900
