146
C48H98
C   29.3576   -0.4110   -0.0000
C   28.1074    0.4710    0.0000
C   26.8591   -0.4136   -0.0000
C   25.6089    0.4684    0.0000
C   24.3606   -0.4162   -0.0000
C   23.1105    0.4658    0.0000
C   21.8621   -0.4188   -0.0000
C   20.6120    0.4632    0.0000
C   19.3637   -0.4214   -0.0000
C   18.1135    0.4606    0.0000
C   16.8652   -0.4241   -0.0000
C   15.6150    0.4580    0.0000
C   14.3667   -0.4267   -0.0000
C   13.1165    0.4554    0.0000
C   11.8682   -0.4293   -0.0000
C   10.6181    0.4528    0.0000
C    9.3698   -0.4319   -0.0000
C    8.1196    0.4502    0.0000
C    6.8713   -0.4345   -0.0000
C    5.6211    0.4475    0.0000
C    4.3728   -0.4371   -0.0000
C    3.1226    0.4449    0.0000
C    1.8743   -0.4397   -0.0000
C    0.6242    0.4423    0.0000
C   -0.6242   -0.4423    0.0000
C   -1.8743    0.4397   -0.0000
C   -3.1226   -0.4449    0.0000
C   -4.3728    0.4371   -0.0000
C   -5.6211   -0.4475    0.0000
C   -6.8713    0.4345   -0.0000
C   -8.1196   -0.4502    0.0000
C   -9.3698    0.4319   -0.0000
C  -10.6181   -0.4528    0.0000
C  -11.8682    0.4293   -0.0000
C  -13.1165   -0.4554    0.0000
C  -14.3667    0.4267   -0.0000
C  -15.6150   -0.4580    0.0000
C  -16.8652    0.4241   -0.0000
C  -18.1135   -0.4606    0.0000
C  -19.3637    0.4214   -0.0000
C  -20.6120   -0.4632    0.0000
C  -21.8621    0.4188   -0.0000
C  -23.1105   -0.4658    0.0000
C  -24.3606    0.4162   -0.0000
C  -25.6089   -0.4684    0.0000
C  -26.8591    0.4136   -0.0000
C  -28.1074   -0.4710    0.0000
C  -29.3576    0.4110   -0.0000
H   30.2469    0.2192    0.0000
H   29.3582   -1.0403    0.8900
H   29.3582   -1.0403   -0.8900
H   28.1068    1.1003    0.8900
H   28.1068    1.1003   -0.8900
H   26.8598   -1.0429   -0.8900
H   26.8598   -1.0429    0.8900
H   25.6083    1.0977    0.8900
H   25.6083    1.0977   -0.8900
H   24.3613   -1.0455   -0.8900
H   24.3613   -1.0455    0.8900
H   23.1098    1.0951    0.8900
H   23.1098    1.0951   -0.8900
H   21.8628   -1.0481   -0.8900
H   21.8628   -1.0481    0.8900
H   20.6113    1.0925    0.8900
H   20.6113    1.0925   -0.8900
H   19.3643   -1.0508   -0.8900
H   19.3643   -1.0508    0.8900
H   18.1128    1.0899    0.8900
H   18.1128    1.0899   -0.8900
H   16.8658   -1.0534   -0.8900
H   16.8658   -1.0534    0.8900
H   15.6144    1.0873    0.8900
H   15.6144    1.0873   -0.8900
H   14.3674   -1.0560   -0.8900
H   14.3674   -1.0560    0.8900
H   13.1159    1.0847    0.8900
H   13.1159    1.0847   -0.8900
H   11.8689   -1.0586   -0.8900
H   11.8689   -1.0586    0.8900
H   10.6174    1.0821    0.8900
H   10.6174    1.0821   -0.8900
H    9.3704   -1.0612   -0.8900
H    9.3704   -1.0612    0.8900
H    8.1189    1.0795    0.8900
H    8.1189    1.0795   -0.8900
H    6.8719   -1.0638   -0.8900
H    6.8719   -1.0638    0.8900
H    5.6205    1.0769    0.8900
H    5.6205    1.0769   -0.8900
H    4.3735   -1.0664   -0.8900
H    4.3735   -1.0664    0.8900
H    3.1220    1.0742    0.8900
H    3.1220    1.0742   -0.8900
H    1.8750   -1.0690   -0.8900
H    1.8750   -1.0690    0.8900
H    0.6235    1.0716    0.8900
H    0.6235    1.0716   -0.8900
H   -0.6235   -1.0716   -0.8900
H   -0.6235   -1.0716    0.8900
H   -1.8750    1.0690    0.8900
H   -1.8750    1.0690   -0.8900
H   -3.1220   -1.0742   -0.8900
H   -3.1220   -1.0742    0.8900
H   -4.3735    1.0664    0.8900
H   -4.3735    1.0664   -0.8900
H   -5.6205   -1.0769   -0.8900
H   -5.6205   -1.0769    0.8900
H   -6.8719    1.0638    0.8900
H   -6.8719    1.0638   -0.8900
H   -8.1189   -1.0795   -0.8900
H   -8.1189   -1.0795    0.8900
H   -9.3704    1.0612    0.8900
H   -9.3704    1.0612   -0.8900
H  -10.6174   -1.0821   -0.8900
H  -10.6174   -1.0821    0.8900
H  -11.8689    1.0586    0.8900
H  -11.8689    1.0586   -0.8900
H  -13.1159   -1.0847   -0.8900
H  -13.1159   -1.0847    0.8900
H  -14.3674    1.0560    0.8900
H  -14.3674    1.0560   -0.8900
H  -15.6144   -1.0873   -0.8900
H  -15.6144   -1.0873    0.8900
H  -16.8658    1.0534    0.8900
H  -16.8658    1.0534   -0.8900
H  -18.1128   -1.0899   -0.8900
H  -18.1128   -1.0899    0.8900
H  -19.3643    1.0508    0.8900
H  -19.3643    1.0508   -0.8900
H  -20.6113   -1.0925   -0.8900
H  -20.6113   -1.0925    0.8900
H  -21.8628    1.0481    0.8900
H  -21.8628    1.0481   -0.8900
H  -23.1098   -1.0951   -0.8900
H  -23.1098   -1.0951    0.8900
H  -24.3613    1.0455    0.8900
H  -24.3613    1.0455   -0.8900
H  -25.6083   -1.0977   -0.8900
H  -25.6083   -1.0977    0.8900
H  -26.8598    1.0429    0.8900
H  -26.8598    1.0429   -0.8900
H  -28.1068   -1.1003   -0.8900
H  -28.1068   -1.1003    0.8900
H  -29.3582    1.0403    0.8900
H  -29.3582    1.0403   -0.8900
H  -30.2469   -0.2192    0.0000
