266
C88H178
C   54.3421   -0.4247   -0.0000
C   53.0925    0.4582    0.0000
C   51.8436   -0.4255   -0.0000
C   50.5941    0.4574    0.0000
C   49.3451   -0.4263   -0.0000
C   48.0956    0.4567    0.0000
C   46.8466   -0.4271   -0.0000
C   45.5971    0.4559    0.0000
C   44.3481   -0.4278   -0.0000
C   43.0986    0.4551    0.0000
C   41.8497   -0.4286   -0.0000
C   40.6002    0.4543    0.0000
C   39.3512   -0.4294   -0.0000
C   38.1017    0.4536    0.0000
C   36.8527   -0.4302   -0.0000
C   35.6032    0.4528    0.0000
C   34.3542   -0.4310   -0.0000
C   33.1047    0.4520    0.0000
C   31.8557   -0.4317   -0.0000
C   30.6062    0.4512    0.0000
C   29.3573   -0.4325   -0.0000
C   28.1078    0.4504    0.0000
C   26.8588   -0.4333   -0.0000
C   25.6093    0.4497    0.0000
C   24.3603   -0.4341   -0.0000
C   23.1108    0.4489    0.0000
C   21.8618   -0.4349   -0.0000
C   20.6123    0.4481    0.0000
C   19.3634   -0.4356   -0.0000
C   18.1138    0.4473    0.0000
C   16.8649   -0.4364   -0.0000
C   15.6154    0.4465    0.0000
C   14.3664   -0.4372   -0.0000
C   13.1169    0.4458    0.0000
C   11.8679   -0.4380   -0.0000
C   10.6184    0.4450    0.0000
C    9.3694   -0.4388   -0.0000
C    8.1199    0.4442    0.0000
C    6.8710   -0.4395   -0.0000
C    5.6214    0.4434    0.0000
C    4.3725   -0.4403   -0.0000
C    3.1230    0.4426    0.0000
C    1.8740   -0.4411   -0.0000
C    0.6245    0.4419    0.0000
C   -0.6245   -0.4419    0.0000
C   -1.8740    0.4411   -0.0000
C   -3.1230   -0.4426    0.0000
C   -4.3725    0.4403   -0.0000
C   -5.6214   -0.4434    0.0000
C   -6.8710    0.4395   -0.0000
C   -8.1199   -0.4442    0.0000
C   -9.3694    0.4388   -0.0000
C  -10.6184   -0.4450    0.0000
C  -11.8679    0.4380   -0.0000
C  -13.1169   -0.4458    0.0000
C  -14.3664    0.4372   -0.0000
C  -15.6154   -0.4465    0.0000
C  -16.8649    0.4364   -0.0000
C  -18.1138   -0.4473    0.0000
C  -19.3634    0.4356   -0.0000
C  -20.6123   -0.4481    0.0000
C  -21.8618    0.4349   -0.0000
C  -23.1108   -0.4489    0.0000
C  -24.3603    0.4341   -0.0000
C  -25.6093   -0.4497    0.0000
C  -26.8588    0.4333   -0.0000
C  -28.1078   -0.4504    0.0000
C  -29.3573    0.4325   -0.0000
C  -30.6062   -0.4512    0.0000
C  -31.8557    0.4317   -0.0000
C  -33.1047   -0.4520    0.0000
C  -34.3542    0.4310   -0.0000
C  -35.6032   -0.4528    0.0000
C  -36.8527    0.4302   -0.0000
C  -38.1017   -0.4536    0.0000
C  -39.3512    0.4294   -0.0000
C  -40.6002   -0.4543    0.0000
C  -41.8497    0.4286   -0.0000
C  -43.0986   -0.4551    0.0000
C  -44.3481    0.4278   -0.0000
C  -45.5971   -0.4559    0.0000
C  -46.8466    0.4271   -0.0000
C  -48.0956   -0.4567    0.0000
C  -49.3451    0.4263   -0.0000
C  -50.5941   -0.4574    0.0000
C  -51.8436    0.4255   -0.0000
C  -53.0925   -0.4582    0.0000
C  -54.3421    0.4247   -0.0000
H   55.2318    0.2049    0.0000
H   54.3423   -1.0540    0.8900
H   54.3423   -1.0540   -0.8900
H   53.0924    1.0875    0.8900
H   53.0924    1.0875   -0.8900
H   51.8438   -1.0548   -0.8900
H   51.8438   -1.0548    0.8900
H   50.5939    1.0868    0.8900
H   50.5939    1.0868   -0.8900
H   49.3453   -1.0556   -0.8900
H   49.3453   -1.0556    0.8900
H   48.0954    1.0860    0.8900
H   48.0954    1.0860   -0.8900
H   46.8468   -1.0564   -0.8900
H   46.8468   -1.0564    0.8900
H   45.5969    1.0852    0.8900
H   45.5969    1.0852   -0.8900
H   44.3483   -1.0572   -0.8900
H   44.3483   -1.0572    0.8900
H   43.0984    1.0844    0.8900
H   43.0984    1.0844   -0.8900
H   41.8499   -1.0579   -0.8900
H   41.8499   -1.0579    0.8900
H   40.6000    1.0836    0.8900
H   40.6000    1.0836   -0.8900
H   39.3514   -1.0587   -0.8900
H   39.3514   -1.0587    0.8900
H   38.1015    1.0829    0.8900
H   38.1015    1.0829   -0.8900
H   36.8529   -1.0595   -0.8900
H   36.8529   -1.0595    0.8900
H   35.6030    1.0821    0.8900
H   35.6030    1.0821   -0.8900
H   34.3544   -1.0603   -0.8900
H   34.3544   -1.0603    0.8900
H   33.1045    1.0813    0.8900
H   33.1045    1.0813   -0.8900
H   31.8559   -1.0610   -0.8900
H   31.8559   -1.0611    0.8900
H   30.6060    1.0805    0.8900
H   30.6060    1.0805   -0.8900
H   29.3575   -1.0618   -0.8900
H   29.3575   -1.0618    0.8900
H   28.1076    1.0797    0.8900
H   28.1076    1.0798   -0.8900
H   26.8590   -1.0626   -0.8900
H   26.8590   -1.0626    0.8900
H   25.6091    1.0790    0.8900
H   25.6091    1.0790   -0.8900
H   24.3605   -1.0634   -0.8900
H   24.3605   -1.0634    0.8900
H   23.1106    1.0782    0.8900
H   23.1106    1.0782   -0.8900
H   21.8620   -1.0642   -0.8900
H   21.8620   -1.0642    0.8900
H   20.6121    1.0774    0.8900
H   20.6121    1.0774   -0.8900
H   19.3635   -1.0649   -0.8900
H   19.3635   -1.0649    0.8900
H   18.1136    1.0766    0.8900
H   18.1136    1.0766   -0.8900
H   16.8651   -1.0657   -0.8900
H   16.8651   -1.0657    0.8900
H   15.6152    1.0759    0.8900
H   15.6152    1.0759   -0.8900
H   14.3666   -1.0665   -0.8900
H   14.3666   -1.0665    0.8900
H   13.1167    1.0751    0.8900
H   13.1167    1.0751   -0.8900
H   11.8681   -1.0673   -0.8900
H   11.8681   -1.0673    0.8900
H   10.6182    1.0743    0.8900
H   10.6182    1.0743   -0.8900
H    9.3696   -1.0681   -0.8900
H    9.3696   -1.0681    0.8900
H    8.1197    1.0735    0.8900
H    8.1197    1.0735   -0.8900
H    6.8712   -1.0688   -0.8900
H    6.8712   -1.0688    0.8900
H    5.6212    1.0727    0.8900
H    5.6212    1.0727   -0.8900
H    4.3727   -1.0696   -0.8900
H    4.3727   -1.0696    0.8900
H    3.1228    1.0720    0.8900
H    3.1228    1.0720   -0.8900
H    1.8742   -1.0704   -0.8900
H    1.8742   -1.0704    0.8900
H    0.6243    1.0712    0.8900
H    0.6243    1.0712   -0.8900
H   -0.6243   -1.0712   -0.8900
H   -0.6243   -1.0712    0.8900
H   -1.8742    1.0704    0.8900
H   -1.8742    1.0704   -0.8900
H   -3.1228   -1.0720   -0.8900
H   -3.1228   -1.0720    0.8900
H   -4.3727    1.0696    0.8900
H   -4.3727    1.0696   -0.8900
H   -5.6212   -1.0727   -0.8900
H   -5.6212   -1.0727    0.8900
H   -6.8712    1.0688    0.8900
H   -6.8712    1.0688   -0.8900
H   -8.1197   -1.0735   -0.8900
H   -8.1197   -1.0735    0.8900
H   -9.3696    1.0681    0.8900
H   -9.3696    1.0681   -0.8900
H  -10.6182   -1.0743   -0.8900
H  -10.6182   -1.0743    0.8900
H  -11.8681    1.0673    0.8900
H  -11.8681    1.0673   -0.8900
H  -13.1167   -1.0751   -0.8900
H  -13.1167   -1.0751    0.8900
H  -14.3666    1.0665    0.8900
H  -14.3666    1.0665   -0.8900
H  -15.6152   -1.0759   -0.8900
H  -15.6152   -1.0759    0.8900
H  -16.8651    1.0657    0.8900
H  -16.8651    1.0657   -0.8900
H  -18.1136   -1.0766   -0.8900
H  -18.1136   -1.0766    0.8900
H  -19.3635    1.0649    0.8900
H  -19.3635    1.0649   -0.8900
H  -20.6121   -1.0774   -0.8900
H  -20.6121   -1.0774    0.8900
H  -21.8620    1.0642    0.8900
H  -21.8620    1.0642   -0.8900
H  -23.1106   -1.0782   -0.8900
H  -23.1106   -1.0782    0.8900
H  -24.3605    1.0634    0.8900
H  -24.3605    1.0634   -0.8900
H  -25.6091   -1.0790   -0.8900
H  -25.6091   -1.0790    0.8900
H  -26.8590    1.0626    0.8900
H  -26.8590    1.0626   -0.8900
H  -28.1076   -1.0798   -0.8900
H  -28.1076   -1.0797    0.8900
H  -29.3575    1.0618    0.8900
H  -29.3575    1.0618   -0.8900
H  -30.6060   -1.0805   -0.8900
H  -30.6060   -1.0805    0.8900
H  -31.8559    1.0611    0.8900
H  -31.8559    1.0610   -0.8900
H  -33.1045   -1.0813   -0.8900
H  -33.1045   -1.0813    0.8900
H  -34.3544    1.0603    0.8900
H  -34.3544    1.0603   -0.8900
H  -35.6030   -1.0821   -0.8900
H  -35.6030   -1.0821    0.8900
H  -36.8529    1.0595    0.8900
H  -36.8529    1.0595   -0.8900
H  -38.1015   -1.0829   -0.8900
H  -38.1015   -1.0829    0.8900
H  -39.3514    1.0587    0.8900
H  -39.3514    1.0587   -0.8900
H  -40.6000   -1.0836   -0.8900
H  -40.6000   -1.0836    0.8900
H  -41.8499    1.0579    0.8900
H  -41.8499    1.0579   -0.8900
H  -43.0984   -1.0844   -0.8900
H  -43.0984   -1.0844    0.8900
H  -44.3483    1.0572    0.8900
H  -44.3483    1.0572   -0.8900
H  -45.5969   -1.0852   -0.8900
H  -45.5969   -1.0852    0.8900
H  -46.8468    1.0564    0.8900
H  -46.8468    1.0564   -0.8900
H  -48.0954   -1.0860   -0.8900
H  -48.0954   -1.0860    0.8900
H  -49.3453    1.0556    0.8900
H  -49.3453    1.0556   -0.8900
H  -50.5939   -1.0868   -0.8900
H  -50.5939   -1.0868    0.8900
H  -51.8438    1.0548    0.8900
H  -51.8438    1.0548   -0.8900
H  -53.0924   -1.0875   -0.8900
H  -53.0924   -1.0875    0.8900
H  -54.3423    1.0540    0.8900
H  -54.3423    1.0540   -0.8900
H  -55.2318   -0.2049    0.0000
