326
C108H218
C   66.8344   -0.4278   -0.0000
C   65.5850    0.4553    0.0000
C   64.3359   -0.4283   -0.0000
C   63.0865    0.4547    0.0000
C   61.8375   -0.4289   -0.0000
C   60.5880    0.4542    0.0000
C   59.3390   -0.4294   -0.0000
C   58.0896    0.4537    0.0000
C   56.8405   -0.4299   -0.0000
C   55.5911    0.4532    0.0000
C   54.3420   -0.4304   -0.0000
C   53.0926    0.4527    0.0000
C   51.8435   -0.4309   -0.0000
C   50.5941    0.4522    0.0000
C   49.3451   -0.4314   -0.0000
C   48.0956    0.4516    0.0000
C   46.8466   -0.4320   -0.0000
C   45.5972    0.4511    0.0000
C   44.3481   -0.4325   -0.0000
C   43.0987    0.4506    0.0000
C   41.8496   -0.4330   -0.0000
C   40.6002    0.4501    0.0000
C   39.3511   -0.4335   -0.0000
C   38.1017    0.4496    0.0000
C   36.8527   -0.4340   -0.0000
C   35.6032    0.4490    0.0000
C   34.3542   -0.4346   -0.0000
C   33.1048    0.4485    0.0000
C   31.8557   -0.4351   -0.0000
C   30.6063    0.4480    0.0000
C   29.3572   -0.4356   -0.0000
C   28.1078    0.4475    0.0000
C   26.8587   -0.4361   -0.0000
C   25.6093    0.4470    0.0000
C   24.3603   -0.4366   -0.0000
C   23.1108    0.4465    0.0000
C   21.8618   -0.4371   -0.0000
C   20.6124    0.4459    0.0000
C   19.3633   -0.4377   -0.0000
C   18.1139    0.4454    0.0000
C   16.8648   -0.4382   -0.0000
C   15.6154    0.4449    0.0000
C   14.3663   -0.4387   -0.0000
C   13.1169    0.4444    0.0000
C   11.8679   -0.4392   -0.0000
C   10.6184    0.4439    0.0000
C    9.3694   -0.4397   -0.0000
C    8.1200    0.4434    0.0000
C    6.8709   -0.4402   -0.0000
C    5.6215    0.4428    0.0000
C    4.3724   -0.4408   -0.0000
C    3.1230    0.4423    0.0000
C    1.8740   -0.4413   -0.0000
C    0.6245    0.4418    0.0000
C   -0.6245   -0.4418    0.0000
C   -1.8740    0.4413   -0.0000
C   -3.1230   -0.4423    0.0000
C   -4.3724    0.4408   -0.0000
C   -5.6215   -0.4428    0.0000
C   -6.8709    0.4402   -0.0000
C   -8.1200   -0.4434    0.0000
C   -9.3694    0.4397   -0.0000
C  -10.6184   -0.4439    0.0000
C  -11.8679    0.4392   -0.0000
C  -13.1169   -0.4444    0.0000
C  -14.3663    0.4387   -0.0000
C  -15.6154   -0.4449    0.0000
C  -16.8648    0.4382   -0.0000
C  -18.1139   -0.4454    0.0000
C  -19.3633    0.4377   -0.0000
C  -20.6124   -0.4459    0.0000
C  -21.8618    0.4371   -0.0000
C  -23.1108   -0.4465    0.0000
C  -24.3603    0.4366   -0.0000
C  -25.6093   -0.4470    0.0000
C  -26.8587    0.4361   -0.0000
C  -28.1078   -0.4475    0.0000
C  -29.3572    0.4356   -0.0000
C  -30.6063   -0.4480    0.0000
C  -31.8557    0.4351   -0.0000
C  -33.1048   -0.4485    0.0000
C  -34.3542    0.4346   -0.0000
C  -35.6032   -0.4490    0.0000
C  -36.8527    0.4340   -0.0000
C  -38.1017   -0.4496    0.0000
C  -39.3511    0.4335   -0.0000
C  -40.6002   -0.4501    0.0000
C  -41.8496    0.4330   -0.0000
C  -43.0987   -0.4506    0.0000
C  -44.3481    0.4325   -0.0000
C  -45.5972   -0.4511    0.0000
C  -46.8466    0.4320   -0.0000
C  -48.0956   -0.4516    0.0000
C  -49.3451    0.4314   -0.0000
C  -50.5941   -0.4522    0.0000
C  -51.8435    0.4309   -0.0000
C  -53.0926   -0.4527    0.0000
C  -54.3420    0.4304   -0.0000
C  -55.5911   -0.4532    0.0000
C  -56.8405    0.4299   -0.0000
C  -58.0896   -0.4537    0.0000
C  -59.3390    0.4294   -0.0000
C  -60.5880   -0.4542    0.0000
C  -61.8375    0.4289   -0.0000
C  -63.0865   -0.4547    0.0000
C  -64.3359    0.4283   -0.0000
C  -65.5850   -0.4553    0.0000
C  -66.8344    0.4278   -0.0000
H   67.7243    0.2017    0.0000
H   66.8345   -1.0571    0.8900
H   66.8345   -1.0571   -0.8900
H   65.5849    1.0846    0.8900
H   65.5849    1.0846   -0.8900
H   64.3361   -1.0577   -0.8900
H   64.3361   -1.0577    0.8900
H   63.0864    1.0841    0.8900
H   63.0864    1.0841   -0.8900
H   61.8376   -1.0582   -0.8900
H   61.8376   -1.0582    0.8900
H   60.5879    1.0835    0.8900
H   60.5879    1.0835   -0.8900
H   59.3391   -1.0587   -0.8900
H   59.3391   -1.0587    0.8900
H   58.0894    1.0830    0.8900
H   58.0894    1.0830   -0.8900
H   56.8406   -1.0592   -0.8900
H   56.8406   -1.0592    0.8900
H   55.5909    1.0825    0.8900
H   55.5909    1.0825   -0.8900
H   54.3421   -1.0597   -0.8900
H   54.3421   -1.0597    0.8900
H   53.0925    1.0820    0.8900
H   53.0925    1.0820   -0.8900
H   51.8437   -1.0602   -0.8900
H   51.8437   -1.0602    0.8900
H   50.5940    1.0815    0.8900
H   50.5940    1.0815   -0.8900
H   49.3452   -1.0608   -0.8900
H   49.3452   -1.0608    0.8900
H   48.0955    1.0809    0.8900
H   48.0955    1.0810   -0.8900
H   46.8467   -1.0613   -0.8900
H   46.8467   -1.0613    0.8900
H   45.5970    1.0804    0.8900
H   45.5970    1.0804   -0.8900
H   44.3482   -1.0618   -0.8900
H   44.3482   -1.0618    0.8900
H   43.0985    1.0799    0.8900
H   43.0985    1.0799   -0.8900
H   41.8498   -1.0623   -0.8900
H   41.8498   -1.0623    0.8900
H   40.6001    1.0794    0.8900
H   40.6001    1.0794   -0.8900
H   39.3513   -1.0628   -0.8900
H   39.3513   -1.0628    0.8900
H   38.1016    1.0789    0.8900
H   38.1016    1.0789   -0.8900
H   36.8528   -1.0633   -0.8900
H   36.8528   -1.0634    0.8900
H   35.6031    1.0784    0.8900
H   35.6031    1.0784   -0.8900
H   34.3543   -1.0639   -0.8900
H   34.3543   -1.0639    0.8900
H   33.1046    1.0778    0.8900
H   33.1046    1.0778   -0.8900
H   31.8558   -1.0644   -0.8900
H   31.8558   -1.0644    0.8900
H   30.6062    1.0773    0.8900
H   30.6062    1.0773   -0.8900
H   29.3574   -1.0649   -0.8900
H   29.3574   -1.0649    0.8900
H   28.1077    1.0768    0.8900
H   28.1077    1.0768   -0.8900
H   26.8589   -1.0654   -0.8900
H   26.8589   -1.0654    0.8900
H   25.6092    1.0763    0.8900
H   25.6092    1.0763   -0.8900
H   24.3604   -1.0659   -0.8900
H   24.3604   -1.0659    0.8900
H   23.1107    1.0758    0.8900
H   23.1107    1.0758   -0.8900
H   21.8619   -1.0665   -0.8900
H   21.8619   -1.0665    0.8900
H   20.6122    1.0753    0.8900
H   20.6122    1.0753   -0.8900
H   19.3634   -1.0670   -0.8900
H   19.3634   -1.0670    0.8900
H   18.1138    1.0747    0.8900
H   18.1138    1.0747   -0.8900
H   16.8650   -1.0675   -0.8900
H   16.8650   -1.0675    0.8900
H   15.6153    1.0742    0.8900
H   15.6153    1.0742   -0.8900
H   14.3665   -1.0680   -0.8900
H   14.3665   -1.0680    0.8900
H   13.1168    1.0737    0.8900
H   13.1168    1.0737   -0.8900
H   11.8680   -1.0685   -0.8900
H   11.8680   -1.0685    0.8900
H   10.6183    1.0732    0.8900
H   10.6183    1.0732   -0.8900
H    9.3695   -1.0690   -0.8900
H    9.3695   -1.0690    0.8900
H    8.1198    1.0727    0.8900
H    8.1198    1.0727   -0.8900
H    6.8710   -1.0696   -0.8900
H    6.8710   -1.0696    0.8900
H    5.6214    1.0721    0.8900
H    5.6214    1.0721   -0.8900
H    4.3726   -1.0701   -0.8900
H    4.3726   -1.0701    0.8900
H    3.1229    1.0716    0.8900
H    3.1229    1.0716   -0.8900
H    1.8741   -1.0706   -0.8900
H    1.8741   -1.0706    0.8900
H    0.6244    1.0711    0.8900
H    0.6244    1.0711   -0.8900
H   -0.6244   -1.0711   -0.8900
H   -0.6244   -1.0711    0.8900
H   -1.8741    1.0706    0.8900
H   -1.8741    1.0706   -0.8900
H   -3.1229   -1.0716   -0.8900
H   -3.1229   -1.0716    0.8900
H   -4.3726    1.0701    0.8900
H   -4.3726    1.0701   -0.8900
H   -5.6214   -1.0721   -0.8900
H   -5.6214   -1.0721    0.8900
H   -6.8710    1.0696    0.8900
H   -6.8710    1.0696   -0.8900
H   -8.1198   -1.0727   -0.8900
H   -8.1198   -1.0727    0.8900
H   -9.3695    1.0690    0.8900
H   -9.3695    1.0690   -0.8900
H  -10.6183   -1.0732   -0.8900
H  -10.6183   -1.0732    0.8900
H  -11.8680    1.0685    0.8900
H  -11.8680    1.0685   -0.8900
H  -13.1168   -1.0737   -0.8900
H  -13.1168   -1.0737    0.8900
H  -14.3665    1.0680    0.8900
H  -14.3665    1.0680   -0.8900
H  -15.6153   -1.0742   -0.8900
H  -15.6153   -1.0742    0.8900
H  -16.8650    1.0675    0.8900
H  -16.8650    1.0675   -0.8900
H  -18.1138   -1.0747   -0.8900
H  -18.1138   -1.0747    0.8900
H  -19.3634    1.0670    0.8900
H  -19.3634    1.0670   -0.8900
H  -20.6122   -1.0753   -0.8900
H  -20.6122   -1.0753    0.8900
H  -21.8619    1.0665    0.8900
H  -21.8619    1.0665   -0.8900
H  -23.1107   -1.0758   -0.8900
H  -23.1107   -1.0758    0.8900
H  -24.3604    1.0659    0.8900
H  -24.3604    1.0659   -0.8900
H  -25.6092   -1.0763   -0.8900
H  -25.6092   -1.0763    0.8900
H  -26.8589    1.0654    0.8900
H  -26.8589    1.0654   -0.8900
H  -28.1077   -1.0768   -0.8900
H  -28.1077   -1.0768    0.8900
H  -29.3574    1.0649    0.8900
H  -29.3574    1.0649   -0.8900
H  -30.6062   -1.0773   -0.8900
H  -30.6062   -1.0773    0.8900
H  -31.8558    1.0644    0.8900
H  -31.8558    1.0644   -0.8900
H  -33.1046   -1.0778   -0.8900
H  -33.1046   -1.0778    0.8900
H  -34.3543    1.0639    0.8900
H  -34.3543    1.0639   -0.8900
H  -35.6031   -1.0784   -0.8900
H  -35.6031   -1.0784    0.8900
H  -36.8528    1.0634    0.8900
H  -36.8528    1.0633   -0.8900
H  -38.1016   -1.0789   -0.8900
H  -38.1016   -1.0789    0.8900
H  -39.3513    1.0628    0.8900
H  -39.3513    1.0628   -0.8900
H  -40.6001   -1.0794   -0.8900
H  -40.6001   -1.0794    0.8900
H  -41.8498    1.0623    0.8900
H  -41.8498    1.0623   -0.8900
H  -43.0985   -1.0799   -0.8900
H  -43.0985   -1.0799    0.8900
H  -44.3482    1.0618    0.8900
H  -44.3482    1.0618   -0.8900
H  -45.5970   -1.0804   -0.8900
H  -45.5970   -1.0804    0.8900
H  -46.8467    1.0613    0.8900
H  -46.8467    1.0613   -0.8900
H  -48.0955   -1.0810   -0.8900
H  -48.0955   -1.0809    0.8900
H  -49.3452    1.0608    0.8900
H  -49.3452    1.0608   -0.8900
H  -50.5940   -1.0815   -0.8900
H  -50.5940   -1.0815    0.8900
H  -51.8437    1.0602    0.8900
H  -51.8437    1.0602   -0.8900
H  -53.0925   -1.0820   -0.8900
H  -53.0925   -1.0820    0.8900
H  -54.3421    1.0597    0.8900
H  -54.3421    1.0597   -0.8900
H  -55.5909   -1.0825   -0.8900
H  -55.5909   -1.0825    0.8900
H  -56.8406    1.0592    0.8900
H  -56.8406    1.0592   -0.8900
H  -58.0894   -1.0830   -0.8900
H  -58.0894   -1.0830    0.8900
H  -59.3391    1.0587    0.8900
H  -59.3391    1.0587   -0.8900
H  -60.5879   -1.0835   -0.8900
H  -60.5879   -1.0835    0.8900
H  -61.8376    1.0582    0.8900
H  -61.8376    1.0582   -0.8900
H  -63.0864   -1.0841   -0.8900
H  -63.0864   -1.0841    0.8900
H  -64.3361    1.0577    0.8900
H  -64.3361    1.0577   -0.8900
H  -65.5849   -1.0846   -0.8900
H  -65.5849   -1.0846    0.8900
H  -66.8345    1.0571    0.8900
H  -66.8345    1.0571   -0.8900
H  -67.7243   -0.2017    0.0000
