356
C118H238
C   73.0806   -0.4290   -0.0000
C   71.8312    0.4541    0.0000
C   70.5821   -0.4294   -0.0000
C   69.3327    0.4537    0.0000
C   68.0836   -0.4299   -0.0000
C   66.8343    0.4533    0.0000
C   65.5852   -0.4303   -0.0000
C   64.3358    0.4528    0.0000
C   63.0867   -0.4307   -0.0000
C   61.8373    0.4524    0.0000
C   60.5882   -0.4312   -0.0000
C   59.3388    0.4520    0.0000
C   58.0897   -0.4316   -0.0000
C   56.8403    0.4515    0.0000
C   55.5912   -0.4320   -0.0000
C   54.3419    0.4511    0.0000
C   53.0928   -0.4325   -0.0000
C   51.8434    0.4507    0.0000
C   50.5943   -0.4329   -0.0000
C   49.3449    0.4502    0.0000
C   48.0958   -0.4333   -0.0000
C   46.8464    0.4498    0.0000
C   45.5973   -0.4338   -0.0000
C   44.3479    0.4494    0.0000
C   43.0988   -0.4342   -0.0000
C   41.8495    0.4489    0.0000
C   40.6004   -0.4346   -0.0000
C   39.3510    0.4485    0.0000
C   38.1019   -0.4351   -0.0000
C   36.8525    0.4481    0.0000
C   35.6034   -0.4355   -0.0000
C   34.3540    0.4476    0.0000
C   33.1049   -0.4359   -0.0000
C   31.8555    0.4472    0.0000
C   30.6064   -0.4364   -0.0000
C   29.3571    0.4468    0.0000
C   28.1080   -0.4368   -0.0000
C   26.8586    0.4463    0.0000
C   25.6095   -0.4372   -0.0000
C   24.3601    0.4459    0.0000
C   23.1110   -0.4377   -0.0000
C   21.8616    0.4455    0.0000
C   20.6125   -0.4381   -0.0000
C   19.3631    0.4450    0.0000
C   18.1141   -0.4385   -0.0000
C   16.8647    0.4446    0.0000
C   15.6156   -0.4390   -0.0000
C   14.3662    0.4442    0.0000
C   13.1171   -0.4394   -0.0000
C   11.8677    0.4437    0.0000
C   10.6186   -0.4398   -0.0000
C    9.3692    0.4433    0.0000
C    8.1201   -0.4403   -0.0000
C    6.8707    0.4429    0.0000
C    5.6217   -0.4407   -0.0000
C    4.3723    0.4424    0.0000
C    3.1232   -0.4411   -0.0000
C    1.8738    0.4420    0.0000
C    0.6247   -0.4416   -0.0000
C   -0.6247    0.4416    0.0000
C   -1.8738   -0.4420    0.0000
C   -3.1232    0.4411   -0.0000
C   -4.3723   -0.4424    0.0000
C   -5.6217    0.4407   -0.0000
C   -6.8707   -0.4429    0.0000
C   -8.1201    0.4403   -0.0000
C   -9.3692   -0.4433    0.0000
C  -10.6186    0.4398   -0.0000
C  -11.8677   -0.4437    0.0000
C  -13.1171    0.4394   -0.0000
C  -14.3662   -0.4442    0.0000
C  -15.6156    0.4390   -0.0000
C  -16.8647   -0.4446    0.0000
C  -18.1141    0.4385   -0.0000
C  -19.3631   -0.4450    0.0000
C  -20.6125    0.4381   -0.0000
C  -21.8616   -0.4455    0.0000
C  -23.1110    0.4377   -0.0000
C  -24.3601   -0.4459    0.0000
C  -25.6095    0.4372   -0.0000
C  -26.8586   -0.4463    0.0000
C  -28.1080    0.4368   -0.0000
C  -29.3571   -0.4468    0.0000
C  -30.6064    0.4364   -0.0000
C  -31.8555   -0.4472    0.0000
C  -33.1049    0.4359   -0.0000
C  -34.3540   -0.4476    0.0000
C  -35.6034    0.4355   -0.0000
C  -36.8525   -0.4481    0.0000
C  -38.1019    0.4351   -0.0000
C  -39.3510   -0.4485    0.0000
C  -40.6004    0.4346   -0.0000
C  -41.8495   -0.4489    0.0000
C  -43.0988    0.4342   -0.0000
C  -44.3479   -0.4494    0.0000
C  -45.5973    0.4338   -0.0000
C  -46.8464   -0.4498    0.0000
C  -48.0958    0.4333   -0.0000
C  -49.3449   -0.4502    0.0000
C  -50.5943    0.4329   -0.0000
C  -51.8434   -0.4507    0.0000
C  -53.0928    0.4325   -0.0000
C  -54.3419   -0.4511    0.0000
C  -55.5912    0.4320   -0.0000
C  -56.8403   -0.4515    0.0000
C  -58.0897    0.4316   -0.0000
C  -59.3388   -0.4520    0.0000
C  -60.5882    0.4312   -0.0000
C  -61.8373   -0.4524    0.0000
C  -63.0867    0.4307   -0.0000
C  -64.3358   -0.4528    0.0000
C  -65.5852    0.4303   -0.0000
C  -66.8343   -0.4533    0.0000
C  -68.0836    0.4299   -0.0000
C  -69.3327   -0.4537    0.0000
C  -70.5821    0.4294   -0.0000
C  -71.8312   -0.4541    0.0000
C  -73.0806    0.4290   -0.0000
H   73.0807   -1.0583    0.8900
H   73.0807   -1.0583   -0.8900
H   73.9705    0.2005    0.0000
H   71.8311    1.0835    0.8900
H   71.8311    1.0835   -0.8900
H   70.5822   -1.0587   -0.8900
H   70.5822   -1.0587    0.8900
H   69.3326    1.0830    0.8900
H   69.3326    1.0830   -0.8900
H   68.0837   -1.0592   -0.8900
H   68.0837   -1.0592    0.8900
H   66.8341    1.0826    0.8900
H   66.8341    1.0826   -0.8900
H   65.5853   -1.0596   -0.8900
H   65.5853   -1.0596    0.8900
H   64.3357    1.0822    0.8900
H   64.3357    1.0822   -0.8900
H   63.0868   -1.0600   -0.8900
H   63.0868   -1.0600    0.8900
H   61.8372    1.0817    0.8900
H   61.8372    1.0817   -0.8900
H   60.5883   -1.0605   -0.8900
H   60.5883   -1.0605    0.8900
H   59.3387    1.0813    0.8900
H   59.3387    1.0813   -0.8900
H   58.0898   -1.0609   -0.8900
H   58.0898   -1.0609    0.8900
H   56.8402    1.0809    0.8900
H   56.8402    1.0809   -0.8900
H   55.5914   -1.0613   -0.8900
H   55.5914   -1.0613    0.8900
H   54.3417    1.0804    0.8900
H   54.3417    1.0804   -0.8900
H   53.0929   -1.0618   -0.8900
H   53.0929   -1.0618    0.8900
H   51.8433    1.0800    0.8900
H   51.8433    1.0800   -0.8900
H   50.5944   -1.0622   -0.8900
H   50.5944   -1.0622    0.8900
H   49.3448    1.0795    0.8900
H   49.3448    1.0796   -0.8900
H   48.0959   -1.0626   -0.8900
H   48.0959   -1.0626    0.8900
H   46.8463    1.0791    0.8900
H   46.8463    1.0791   -0.8900
H   45.5974   -1.0631   -0.8900
H   45.5974   -1.0631    0.8900
H   44.3478    1.0787    0.8900
H   44.3478    1.0787   -0.8900
H   43.0990   -1.0635   -0.8900
H   43.0990   -1.0635    0.8900
H   41.8493    1.0782    0.8900
H   41.8493    1.0783   -0.8900
H   40.6005   -1.0639   -0.8900
H   40.6005   -1.0639    0.8900
H   39.3509    1.0778    0.8900
H   39.3509    1.0778   -0.8900
H   38.1020   -1.0644   -0.8900
H   38.1020   -1.0644    0.8900
H   36.8524    1.0774    0.8900
H   36.8524    1.0774   -0.8900
H   35.6035   -1.0648   -0.8900
H   35.6035   -1.0648    0.8900
H   34.3539    1.0769    0.8900
H   34.3539    1.0770   -0.8900
H   33.1050   -1.0652   -0.8900
H   33.1050   -1.0652    0.8900
H   31.8554    1.0765    0.8900
H   31.8554    1.0765   -0.8900
H   30.6066   -1.0657   -0.8900
H   30.6066   -1.0657    0.8900
H   29.3569    1.0761    0.8900
H   29.3569    1.0761   -0.8900
H   28.1081   -1.0661   -0.8900
H   28.1081   -1.0661    0.8900
H   26.8585    1.0756    0.8900
H   26.8585    1.0756   -0.8900
H   25.6096   -1.0665   -0.8900
H   25.6096   -1.0665    0.8900
H   24.3600    1.0752    0.8900
H   24.3600    1.0752   -0.8900
H   23.1111   -1.0670   -0.8900
H   23.1111   -1.0670    0.8900
H   21.8615    1.0748    0.8900
H   21.8615    1.0748   -0.8900
H   20.6126   -1.0674   -0.8900
H   20.6126   -1.0674    0.8900
H   19.3630    1.0743    0.8900
H   19.3630    1.0743   -0.8900
H   18.1142   -1.0678   -0.8900
H   18.1142   -1.0678    0.8900
H   16.8645    1.0739    0.8900
H   16.8645    1.0739   -0.8900
H   15.6157   -1.0683   -0.8900
H   15.6157   -1.0683    0.8900
H   14.3661    1.0735    0.8900
H   14.3661    1.0735   -0.8900
H   13.1172   -1.0687   -0.8900
H   13.1172   -1.0687    0.8900
H   11.8676    1.0730    0.8900
H   11.8676    1.0730   -0.8900
H   10.6187   -1.0691   -0.8900
H   10.6187   -1.0691    0.8900
H    9.3691    1.0726    0.8900
H    9.3691    1.0726   -0.8900
H    8.1202   -1.0696   -0.8900
H    8.1202   -1.0696    0.8900
H    6.8706    1.0722    0.8900
H    6.8706    1.0722   -0.8900
H    5.6218   -1.0700   -0.8900
H    5.6218   -1.0700    0.8900
H    4.3722    1.0717    0.8900
H    4.3722    1.0717   -0.8900
H    3.1233   -1.0704   -0.8900
H    3.1233   -1.0704    0.8900
H    1.8737    1.0713    0.8900
H    1.8737    1.0713   -0.8900
H    0.6248   -1.0709   -0.8900
H    0.6248   -1.0709    0.8900
H   -0.6248    1.0709    0.8900
H   -0.6248    1.0709   -0.8900
H   -1.8737   -1.0713   -0.8900
H   -1.8737   -1.0713    0.8900
H   -3.1233    1.0704    0.8900
H   -3.1233    1.0704   -0.8900
H   -4.3722   -1.0717   -0.8900
H   -4.3722   -1.0717    0.8900
H   -5.6218    1.0700    0.8900
H   -5.6218    1.0700   -0.8900
H   -6.8706   -1.0722   -0.8900
H   -6.8706   -1.0722    0.8900
H   -8.1202    1.0696    0.8900
H   -8.1202    1.0696   -0.8900
H   -9.3691   -1.0726   -0.8900
H   -9.3691   -1.0726    0.8900
H  -10.6187    1.0691    0.8900
H  -10.6187    1.0691   -0.8900
H  -11.8676   -1.0730   -0.8900
H  -11.8676   -1.0730    0.8900
H  -13.1172    1.0687    0.8900
H  -13.1172    1.0687   -0.8900
H  -14.3661   -1.0735   -0.8900
H  -14.3661   -1.0735    0.8900
H  -15.6157    1.0683    0.8900
H  -15.6157    1.0683   -0.8900
H  -16.8645   -1.0739   -0.8900
H  -16.8645   -1.0739    0.8900
H  -18.1142    1.0678    0.8900
H  -18.1142    1.0678   -0.8900
H  -19.3630   -1.0743   -0.8900
H  -19.3630   -1.0743    0.8900
H  -20.6126    1.0674    0.8900
H  -20.6126    1.0674   -0.8900
H  -21.8615   -1.0748   -0.8900
H  -21.8615   -1.0748    0.8900
H  -23.1111    1.0670    0.8900
H  -23.1111    1.0670   -0.8900
H  -24.3600   -1.0752   -0.8900
H  -24.3600   -1.0752    0.8900
H  -25.6096    1.0665    0.8900
H  -25.6096    1.0665   -0.8900
H  -26.8585   -1.0756   -0.8900
H  -26.8585   -1.0756    0.8900
H  -28.1081    1.0661    0.8900
H  -28.1081    1.0661   -0.8900
H  -29.3569   -1.0761   -0.8900
H  -29.3569   -1.0761    0.8900
H  -30.6066    1.0657    0.8900
H  -30.6066    1.0657   -0.8900
H  -31.8554   -1.0765   -0.8900
H  -31.8554   -1.0765    0.8900
H  -33.1050    1.0652    0.8900
H  -33.1050    1.0652   -0.8900
H  -34.3539   -1.0770   -0.8900
H  -34.3539   -1.0769    0.8900
H  -35.6035    1.0648    0.8900
H  -35.6035    1.0648   -0.8900
H  -36.8524   -1.0774   -0.8900
H  -36.8524   -1.0774    0.8900
H  -38.1020    1.0644    0.8900
H  -38.1020    1.0644   -0.8900
H  -39.3509   -1.0778   -0.8900
H  -39.3509   -1.0778    0.8900
H  -40.6005    1.0639    0.8900
H  -40.6005    1.0639   -0.8900
H  -41.8493   -1.0783   -0.8900
H  -41.8493   -1.0782    0.8900
H  -43.0990    1.0635    0.8900
H  -43.0990    1.0635   -0.8900
H  -44.3478   -1.0787   -0.8900
H  -44.3478   -1.0787    0.8900
H  -45.5974    1.0631    0.8900
H  -45.5974    1.0631   -0.8900
H  -46.8463   -1.0791   -0.8900
H  -46.8463   -1.0791    0.8900
H  -48.0959    1.0626    0.8900
H  -48.0959    1.0626   -0.8900
H  -49.3448   -1.0796   -0.8900
H  -49.3448   -1.0795    0.8900
H  -50.5944    1.0622    0.8900
H  -50.5944    1.0622   -0.8900
H  -51.8433   -1.0800   -0.8900
H  -51.8433   -1.0800    0.8900
H  -53.0929    1.0618    0.8900
H  -53.0929    1.0618   -0.8900
H  -54.3417   -1.0804   -0.8900
H  -54.3417   -1.0804    0.8900
H  -55.5914    1.0613    0.8900
H  -55.5914    1.0613   -0.8900
H  -56.8402   -1.0809   -0.8900
H  -56.8402   -1.0809    0.8900
H  -58.0898    1.0609    0.8900
H  -58.0898    1.0609   -0.8900
H  -59.3387   -1.0813   -0.8900
H  -59.3387   -1.0813    0.8900
H  -60.5883    1.0605    0.8900
H  -60.5883    1.0605   -0.8900
H  -61.8372   -1.0817   -0.8900
H  -61.8372   -1.0817    0.8900
H  -63.0868    1.0600    0.8900
H  -63.0868    1.0600   -0.8900
H  -64.3357   -1.0822   -0.8900
H  -64.3357   -1.0822    0.8900
H  -65.5853    1.0596    0.8900
H  -65.5853    1.0596   -0.8900
H  -66.8341   -1.0826   -0.8900
H  -66.8341   -1.0826    0.8900
H  -68.0837    1.0592    0.8900
H  -68.0837    1.0592   -0.8900
H  -69.3326   -1.0830   -0.8900
H  -69.3326   -1.0830    0.8900
H  -70.5822    1.0587    0.8900
H  -70.5822    1.0587   -0.8900
H  -71.8311   -1.0835   -0.8900
H  -71.8311   -1.0835    0.8900
H  -73.0807    1.0583    0.8900
H  -73.0807    1.0583   -0.8900
H  -73.9705   -0.2005    0.0000
