242
C80H162
C   49.3451   -0.4231   -0.0000
C   48.0956    0.4598    0.0000
C   46.8467   -0.4240   -0.0000
C   45.5971    0.4589    0.0000
C   44.3482   -0.4249   -0.0000
C   43.0986    0.4579    0.0000
C   41.8497   -0.4259   -0.0000
C   40.6001    0.4570    0.0000
C   39.3512   -0.4268   -0.0000
C   38.1016    0.4560    0.0000
C   36.8527   -0.4278   -0.0000
C   35.6032    0.4551    0.0000
C   34.3543   -0.4287   -0.0000
C   33.1047    0.4542    0.0000
C   31.8558   -0.4297   -0.0000
C   30.6062    0.4532    0.0000
C   29.3573   -0.4306   -0.0000
C   28.1077    0.4523    0.0000
C   26.8588   -0.4315   -0.0000
C   25.6092    0.4513    0.0000
C   24.3603   -0.4325   -0.0000
C   23.1108    0.4504    0.0000
C   21.8619   -0.4334   -0.0000
C   20.6123    0.4494    0.0000
C   19.3634   -0.4344   -0.0000
C   18.1138    0.4485    0.0000
C   16.8649   -0.4353   -0.0000
C   15.6153    0.4476    0.0000
C   14.3664   -0.4363   -0.0000
C   13.1168    0.4466    0.0000
C   11.8679   -0.4372   -0.0000
C   10.6184    0.4457    0.0000
C    9.3695   -0.4381   -0.0000
C    8.1199    0.4447    0.0000
C    6.8710   -0.4391   -0.0000
C    5.6214    0.4438    0.0000
C    4.3725   -0.4400   -0.0000
C    3.1229    0.4429    0.0000
C    1.8740   -0.4410   -0.0000
C    0.6245    0.4419    0.0000
C   -0.6245   -0.4419    0.0000
C   -1.8740    0.4410   -0.0000
C   -3.1229   -0.4429    0.0000
C   -4.3725    0.4400   -0.0000
C   -5.6214   -0.4438    0.0000
C   -6.8710    0.4391   -0.0000
C   -8.1199   -0.4447    0.0000
C   -9.3695    0.4381   -0.0000
C  -10.6184   -0.4457    0.0000
C  -11.8679    0.4372   -0.0000
C  -13.1168   -0.4466    0.0000
C  -14.3664    0.4363   -0.0000
C  -15.6153   -0.4476    0.0000
C  -16.8649    0.4353   -0.0000
C  -18.1138   -0.4485    0.0000
C  -19.3634    0.4344   -0.0000
C  -20.6123   -0.4494    0.0000
C  -21.8619    0.4334   -0.0000
C  -23.1108   -0.4504    0.0000
C  -24.3603    0.4325   -0.0000
C  -25.6092   -0.4513    0.0000
C  -26.8588    0.4315   -0.0000
C  -28.1077   -0.4523    0.0000
C  -29.3573    0.4306   -0.0000
C  -30.6062   -0.4532    0.0000
C  -31.8558    0.4297   -0.0000
C  -33.1047   -0.4542    0.0000
C  -34.3543    0.4287   -0.0000
C  -35.6032   -0.4551    0.0000
C  -36.8527    0.4278   -0.0000
C  -38.1016   -0.4560    0.0000
C  -39.3512    0.4268   -0.0000
C  -40.6001   -0.4570    0.0000
C  -41.8497    0.4259   -0.0000
C  -43.0986   -0.4579    0.0000
C  -44.3482    0.4249   -0.0000
C  -45.5971   -0.4589    0.0000
C  -46.8467    0.4240   -0.0000
C  -48.0956   -0.4598    0.0000
C  -49.3451    0.4231   -0.0000
H   50.2349    0.2066    0.0000
H   49.3454   -1.0524    0.8900
H   49.3454   -1.0524   -0.8900
H   48.0953    1.0891    0.8900
H   48.0953    1.0891   -0.8900
H   46.8469   -1.0533   -0.8900
H   46.8469   -1.0533    0.8900
H   45.5968    1.0882    0.8900
H   45.5968    1.0882   -0.8900
H   44.3484   -1.0543   -0.8900
H   44.3484   -1.0543    0.8900
H   43.0984    1.0872    0.8900
H   43.0984    1.0872   -0.8900
H   41.8499   -1.0552   -0.8900
H   41.8499   -1.0552    0.8900
H   40.5999    1.0863    0.8900
H   40.5999    1.0863   -0.8900
H   39.3515   -1.0561   -0.8900
H   39.3515   -1.0561    0.8900
H   38.1014    1.0854    0.8900
H   38.1014    1.0854   -0.8900
H   36.8530   -1.0571   -0.8900
H   36.8530   -1.0571    0.8900
H   35.6029    1.0844    0.8900
H   35.6029    1.0844   -0.8900
H   34.3545   -1.0580   -0.8900
H   34.3545   -1.0580    0.8900
H   33.1044    1.0835    0.8900
H   33.1044    1.0835   -0.8900
H   31.8560   -1.0590   -0.8900
H   31.8560   -1.0590    0.8900
H   30.6060    1.0825    0.8900
H   30.6060    1.0825   -0.8900
H   29.3575   -1.0599   -0.8900
H   29.3575   -1.0599    0.8900
H   28.1075    1.0816    0.8900
H   28.1075    1.0816   -0.8900
H   26.8591   -1.0609   -0.8900
H   26.8591   -1.0609    0.8900
H   25.6090    1.0806    0.8900
H   25.6090    1.0806   -0.8900
H   24.3606   -1.0618   -0.8900
H   24.3606   -1.0618    0.8900
H   23.1105    1.0797    0.8900
H   23.1105    1.0797   -0.8900
H   21.8621   -1.0627   -0.8900
H   21.8621   -1.0627    0.8900
H   20.6121    1.0788    0.8900
H   20.6121    1.0788   -0.8900
H   19.3636   -1.0637   -0.8900
H   19.3636   -1.0637    0.8900
H   18.1136    1.0778    0.8900
H   18.1136    1.0778   -0.8900
H   16.8651   -1.0646   -0.8900
H   16.8651   -1.0646    0.8900
H   15.6151    1.0769    0.8900
H   15.6151    1.0769   -0.8900
H   14.3667   -1.0656   -0.8900
H   14.3667   -1.0656    0.8900
H   13.1166    1.0759    0.8900
H   13.1166    1.0759   -0.8900
H   11.8682   -1.0665   -0.8900
H   11.8682   -1.0665    0.8900
H   10.6181    1.0750    0.8900
H   10.6181    1.0750   -0.8900
H    9.3697   -1.0675   -0.8900
H    9.3697   -1.0675    0.8900
H    8.1197    1.0740    0.8900
H    8.1197    1.0740   -0.8900
H    6.8712   -1.0684   -0.8900
H    6.8712   -1.0684    0.8900
H    5.6212    1.0731    0.8900
H    5.6212    1.0731   -0.8900
H    4.3727   -1.0693   -0.8900
H    4.3727   -1.0693    0.8900
H    3.1227    1.0722    0.8900
H    3.1227    1.0722   -0.8900
H    1.8743   -1.0703   -0.8900
H    1.8743   -1.0703    0.8900
H    0.6242    1.0712    0.8900
H    0.6242    1.0712   -0.8900
H   -0.6242   -1.0712   -0.8900
H   -0.6242   -1.0712    0.8900
H   -1.8743    1.0703    0.8900
H   -1.8743    1.0703   -0.8900
H   -3.1227   -1.0722   -0.8900
H   -3.1227   -1.0722    0.8900
H   -4.3727    1.0693    0.8900
H   -4.3727    1.0693   -0.8900
H   -5.6212   -1.0731   -0.8900
H   -5.6212   -1.0731    0.8900
H   -6.8712    1.0684    0.8900
H   -6.8712    1.0684   -0.8900
H   -8.1197   -1.0740   -0.8900
H   -8.1197   -1.0740    0.8900
H   -9.3697    1.0675    0.8900
H   -9.3697    1.0675   -0.8900
H  -10.6181   -1.0750   -0.8900
H  -10.6181   -1.0750    0.8900
H  -11.8682    1.0665    0.8900
H  -11.8682    1.0665   -0.8900
H  -13.1166   -1.0759   -0.8900
H  -13.1166   -1.0759    0.8900
H  -14.3667    1.0656    0.8900
H  -14.3667    1.0656   -0.8900
H  -15.6151   -1.0769   -0.8900
H  -15.6151   -1.0769    0.8900
H  -16.8651    1.0646    0.8900
H  -16.8651    1.0646   -0.8900
H  -18.1136   -1.0778   -0.8900
H  -18.1136   -1.0778    0.8900
H  -19.3636    1.0637    0.8900
H  -19.3636    1.0637   -0.8900
H  -20.6121   -1.0788   -0.8900
H  -20.6121   -1.0788    0.8900
H  -21.8621    1.0627    0.8900
H  -21.8621    1.0627   -0.8900
H  -23.1105   -1.0797   -0.8900
H  -23.1105   -1.0797    0.8900
H  -24.3606    1.0618    0.8900
H  -24.3606    1.0618   -0.8900
H  -25.6090   -1.0806   -0.8900
H  -25.6090   -1.0806    0.8900
H  -26.8591    1.0609    0.8900
H  -26.8591    1.0609   -0.8900
H  -28.1075   -1.0816   -0.8900
H  -28.1075   -1.0816    0.8900
H  -29.3575    1.0599    0.8900
H  -29.3575    1.0599   -0.8900
H  -30.6060   -1.0825   -0.8900
H  -30.6060   -1.0825    0.8900
H  -31.8560    1.0590    0.8900
H  -31.8560    1.0590   -0.8900
H  -33.1044   -1.0835   -0.8900
H  -33.1044   -1.0835    0.8900
H  -34.3545    1.0580    0.8900
H  -34.3545    1.0580   -0.8900
H  -35.6029   -1.0844   -0.8900
H  -35.6029   -1.0844    0.8900
H  -36.8530    1.0571    0.8900
H  -36.8530    1.0571   -0.8900
H  -38.1014   -1.0854   -0.8900
H  -38.1014   -1.0854    0.8900
H  -39.3515    1.0561    0.8900
H  -39.3515    1.0561   -0.8900
H  -40.5999   -1.0863   -0.8900
H  -40.5999   -1.0863    0.8900
H  -41.8499    1.0552    0.8900
H  -41.8499    1.0552   -0.8900
H  -43.0984   -1.0872   -0.8900
H  -43.0984   -1.0872    0.8900
H  -44.3484    1.0543    0.8900
H  -44.3484    1.0543   -0.8900
H  -45.5968   -1.0882   -0.8900
H  -45.5968   -1.0882    0.8900
H  -46.8469    1.0533    0.8900
H  -46.8469    1.0533   -0.8900
H  -48.0953   -1.0891   -0.8900
H  -48.0953   -1.0891    0.8900
H  -49.3454    1.0524    0.8900
H  -49.3454    1.0524   -0.8900
H  -50.2349   -0.2066    0.0000
