77
C25H52
C   14.9909   -0.4216   -0.0000
C   13.7416    0.4618    0.0000
C   12.4924   -0.4216   -0.0000
C   11.2432    0.4618    0.0000
C    9.9939   -0.4216   -0.0000
C    8.7447    0.4618    0.0000
C    7.4954   -0.4216   -0.0000
C    6.2462    0.4618    0.0000
C    4.9970   -0.4216   -0.0000
C    3.7477    0.4618    0.0000
C    2.4985   -0.4216   -0.0000
C    1.2492    0.4618    0.0000
C   -0.0000   -0.4216    0.0000
C   -1.2492    0.4618   -0.0000
C   -2.4985   -0.4216    0.0000
C   -3.7477    0.4618   -0.0000
C   -4.9970   -0.4216    0.0000
C   -6.2462    0.4618   -0.0000
C   -7.4954   -0.4216    0.0000
C   -8.7447    0.4618   -0.0000
C   -9.9939   -0.4216    0.0000
C  -11.2432    0.4618   -0.0000
C  -12.4924   -0.4216    0.0000
C  -13.7416    0.4618   -0.0000
C  -14.9909   -0.4216    0.0000
H   15.8809    0.2077    0.0000
H   14.9909   -1.0509    0.8900
H   14.9909   -1.0509   -0.8900
H   13.7416    1.0911    0.8900
H   13.7416    1.0911   -0.8900
H   12.4924   -1.0509   -0.8900
H   12.4924   -1.0509    0.8900
H   11.2432    1.0911    0.8900
H   11.2432    1.0911   -0.8900
H    9.9939   -1.0509   -0.8900
H    9.9939   -1.0509    0.8900
H    8.7447    1.0911    0.8900
H    8.7447    1.0911   -0.8900
H    7.4954   -1.0509   -0.8900
H    7.4954   -1.0509    0.8900
H    6.2462    1.0911    0.8900
H    6.2462    1.0911   -0.8900
H    4.9970   -1.0509   -0.8900
H    4.9970   -1.0509    0.8900
H    3.7477    1.0911    0.8900
H    3.7477    1.0911   -0.8900
H    2.4985   -1.0509   -0.8900
H    2.4985   -1.0509    0.8900
H    1.2492    1.0911    0.8900
H    1.2492    1.0911   -0.8900
H    0.0000   -1.0509   -0.8900
H   -0.0000   -1.0509    0.8900
H   -1.2492    1.0911    0.8900
H   -1.2492    1.0911   -0.8900
H   -2.4985   -1.0509   -0.8900
H   -2.4985   -1.0509    0.8900
H   -3.7477    1.0911    0.8900
H   -3.7477    1.0911   -0.8900
H   -4.9970   -1.0509   -0.8900
H   -4.9970   -1.0509    0.8900
H   -6.2462    1.0911    0.8900
H   -6.2462    1.0911   -0.8900
H   -7.4954   -1.0509   -0.8900
H   -7.4954   -1.0509    0.8900
H   -8.7447    1.0911    0.8900
H   -8.7447    1.0911   -0.8900
H   -9.9939   -1.0509   -0.8900
H   -9.9939   -1.0509    0.8900
H  -11.2432    1.0911    0.8900
H  -11.2432    1.0911   -0.8900
H  -12.4924   -1.0509   -0.8900
H  -12.4924   -1.0509    0.8900
H  -13.7416    1.0911    0.8900
H  -13.7416    1.0911   -0.8900
H  -14.9909   -1.0509   -0.8900
H  -14.9909   -1.0509    0.8900
H  -15.8809    0.2077   -0.0000
