47
C15H32
C    8.7447   -0.4083   -0.0000
C    7.4954    0.4750    0.0000
C    6.2462   -0.4083   -0.0000
C    4.9970    0.4750    0.0000
C    3.7477   -0.4083   -0.0000
C    2.4985    0.4750    0.0000
C    1.2492   -0.4083   -0.0000
C   -0.0000    0.4750    0.0000
C   -1.2492   -0.4083    0.0000
C   -2.4985    0.4750   -0.0000
C   -3.7477   -0.4083    0.0000
C   -4.9970    0.4750   -0.0000
C   -6.2462   -0.4083    0.0000
C   -7.4954    0.4750   -0.0000
C   -8.7447   -0.4083    0.0000
H    9.6347    0.2210    0.0000
H    8.7447   -1.0376    0.8900
H    8.7447   -1.0376   -0.8900
H    7.4954    1.1043    0.8900
H    7.4954    1.1043   -0.8900
H    6.2462   -1.0376   -0.8900
H    6.2462   -1.0376    0.8900
H    4.9970    1.1043    0.8900
H    4.9970    1.1043   -0.8900
H    3.7477   -1.0376   -0.8900
H    3.7477   -1.0376    0.8900
H    2.4985    1.1043    0.8900
H    2.4985    1.1043   -0.8900
H    1.2492   -1.0376   -0.8900
H    1.2492   -1.0376    0.8900
H    0.0000    1.1043    0.8900
H   -0.0000    1.1043   -0.8900
H   -1.2492   -1.0376   -0.8900
H   -1.2492   -1.0376    0.8900
H   -2.4985    1.1043    0.8900
H   -2.4985    1.1043   -0.8900
H   -3.7477   -1.0376   -0.8900
H   -3.7477   -1.0376    0.8900
H   -4.9970    1.1043    0.8900
H   -4.9970    1.1043   -0.8900
H   -6.2462   -1.0376   -0.8900
H   -6.2462   -1.0376    0.8900
H   -7.4954    1.1043    0.8900
H   -7.4954    1.1043   -0.8900
H   -8.7447   -1.0376   -0.8900
H   -8.7447   -1.0376    0.8900
H   -9.6347    0.2210   -0.0000
