122
C40H82
C   24.3608   -0.4051   -0.0000
C   23.1102    0.4764    0.0000
C   21.8623   -0.4088   -0.0000
C   20.6118    0.4726    0.0000
C   19.3639   -0.4126   -0.0000
C   18.1133    0.4689    0.0000
C   16.8654   -0.4163   -0.0000
C   15.6148    0.4651    0.0000
C   14.3669   -0.4201   -0.0000
C   13.1163    0.4614    0.0000
C   11.8684   -0.4238   -0.0000
C   10.6179    0.4576    0.0000
C    9.3700   -0.4276   -0.0000
C    8.1194    0.4539    0.0000
C    6.8715   -0.4314   -0.0000
C    5.6209    0.4501    0.0000
C    4.3730   -0.4351   -0.0000
C    3.1224    0.4464    0.0000
C    1.8745   -0.4389   -0.0000
C    0.6240    0.4426    0.0000
C   -0.6240   -0.4426   -0.0000
C   -1.8745    0.4389    0.0000
C   -3.1224   -0.4464   -0.0000
C   -4.3730    0.4351    0.0000
C   -5.6209   -0.4501   -0.0000
C   -6.8715    0.4314    0.0000
C   -8.1194   -0.4539   -0.0000
C   -9.3700    0.4276    0.0000
C  -10.6179   -0.4576   -0.0000
C  -11.8684    0.4238    0.0000
C  -13.1163   -0.4614   -0.0000
C  -14.3669    0.4201    0.0000
C  -15.6148   -0.4651   -0.0000
C  -16.8654    0.4163    0.0000
C  -18.1133   -0.4689   -0.0000
C  -19.3639    0.4126    0.0000
C  -20.6118   -0.4726   -0.0000
C  -21.8623    0.4088   -0.0000
C  -23.1102   -0.4764   -0.0000
C  -24.3608    0.4051   -0.0000
H   24.3618   -1.0344    0.8900
H   24.3618   -1.0344   -0.8900
H   25.2498    0.2256    0.0000
H   23.1093    1.1057    0.8900
H   23.1093    1.1057   -0.8900
H   21.8633   -1.0381   -0.8900
H   21.8633   -1.0381    0.8900
H   20.6108    1.1019    0.8900
H   20.6108    1.1020   -0.8900
H   19.3648   -1.0419   -0.8900
H   19.3648   -1.0419    0.8900
H   18.1123    1.0982    0.8900
H   18.1123    1.0982   -0.8900
H   16.8663   -1.0456   -0.8900
H   16.8663   -1.0456    0.8900
H   15.6139    1.0944    0.8900
H   15.6139    1.0944   -0.8900
H   14.3678   -1.0494   -0.8900
H   14.3678   -1.0494    0.8900
H   13.1154    1.0907    0.8900
H   13.1154    1.0907   -0.8900
H   11.8694   -1.0532   -0.8900
H   11.8694   -1.0532    0.8900
H   10.6169    1.0869    0.8900
H   10.6169    1.0869   -0.8900
H    9.3709   -1.0569   -0.8900
H    9.3709   -1.0569    0.8900
H    8.1184    1.0832    0.8900
H    8.1184    1.0832   -0.8900
H    6.8724   -1.0607   -0.8900
H    6.8724   -1.0607    0.8900
H    5.6200    1.0794    0.8900
H    5.6200    1.0794   -0.8900
H    4.3739   -1.0644   -0.8900
H    4.3739   -1.0644    0.8900
H    3.1215    1.0757    0.8900
H    3.1215    1.0757   -0.8900
H    1.8755   -1.0682   -0.8900
H    1.8755   -1.0682    0.8900
H    0.6230    1.0719    0.8900
H    0.6230    1.0719   -0.8900
H   -0.6230   -1.0719   -0.8900
H   -0.6230   -1.0719    0.8900
H   -1.8755    1.0682    0.8900
H   -1.8755    1.0682   -0.8900
H   -3.1215   -1.0757   -0.8900
H   -3.1215   -1.0757    0.8900
H   -4.3739    1.0644    0.8900
H   -4.3739    1.0644   -0.8900
H   -5.6200   -1.0794   -0.8900
H   -5.6200   -1.0794    0.8900
H   -6.8724    1.0607    0.8900
H   -6.8724    1.0607   -0.8900
H   -8.1184   -1.0832   -0.8900
H   -8.1184   -1.0832    0.8900
H   -9.3709    1.0569    0.8900
H   -9.3709    1.0569   -0.8900
H  -10.6169   -1.0869   -0.8900
H  -10.6169   -1.0869    0.8900
H  -11.8694    1.0532    0.8900
H  -11.8694    1.0532   -0.8900
H  -13.1154   -1.0907   -0.8900
H  -13.1154   -1.0907    0.8900
H  -14.3678    1.0494    0.8900
H  -14.3678    1.0494   -0.8900
H  -15.6139   -1.0944   -0.8900
H  -15.6139   -1.0944    0.8900
H  -16.8663    1.0456    0.8900
H  -16.8663    1.0456   -0.8900
H  -18.1123   -1.0982   -0.8900
H  -18.1123   -1.0982    0.8900
H  -19.3648    1.0419    0.8900
H  -19.3648    1.0419   -0.8900
H  -20.6108   -1.1019   -0.8900
H  -20.6108   -1.1020    0.8900
H  -21.8633    1.0381    0.8900
H  -21.8633    1.0381   -0.8900
H  -23.1093   -1.1057   -0.8900
H  -23.1093   -1.1057    0.8900
H  -24.3618    1.0344    0.8900
H  -24.3618    1.0344   -0.8900
H  -25.2498   -0.2256   -0.0000
