224
C74H150
C   45.5974    0.4216    0.0000
C   44.3478   -0.4612   -0.0000
C   43.0990    0.4227    0.0000
C   41.8493   -0.4601   -0.0000
C   40.6005    0.4238    0.0000
C   39.3509   -0.4590   -0.0000
C   38.1020    0.4249    0.0000
C   36.8524   -0.4579   -0.0000
C   35.6035    0.4260    0.0000
C   34.3539   -0.4568   -0.0000
C   33.1050    0.4271    0.0000
C   31.8554   -0.4557   -0.0000
C   30.6066    0.4282    0.0000
C   29.3569   -0.4546   -0.0000
C   28.1081    0.4293    0.0000
C   26.8585   -0.4535   -0.0000
C   25.6096    0.4304    0.0000
C   24.3600   -0.4524   -0.0000
C   23.1111    0.4315    0.0000
C   21.8615   -0.4513   -0.0000
C   20.6126    0.4326    0.0000
C   19.3630   -0.4502   -0.0000
C   18.1142    0.4337    0.0000
C   16.8645   -0.4491   -0.0000
C   15.6157    0.4348    0.0000
C   14.3661   -0.4480   -0.0000
C   13.1172    0.4359    0.0000
C   11.8676   -0.4469   -0.0000
C   10.6187    0.4370    0.0000
C    9.3691   -0.4458   -0.0000
C    8.1203    0.4381    0.0000
C    6.8706   -0.4447   -0.0000
C    5.6218    0.4392    0.0000
C    4.3721   -0.4436   -0.0000
C    3.1233    0.4403    0.0000
C    1.8737   -0.4425   -0.0000
C    0.6248    0.4414    0.0000
C   -0.6248   -0.4414   -0.0000
C   -1.8737    0.4425   -0.0000
C   -3.1233   -0.4403    0.0000
C   -4.3721    0.4436   -0.0000
C   -5.6218   -0.4392    0.0000
C   -6.8706    0.4447   -0.0000
C   -8.1203   -0.4381    0.0000
C   -9.3691    0.4458   -0.0000
C  -10.6187   -0.4370    0.0000
C  -11.8676    0.4469   -0.0000
C  -13.1172   -0.4359    0.0000
C  -14.3661    0.4480   -0.0000
C  -15.6157   -0.4348    0.0000
C  -16.8645    0.4491   -0.0000
C  -18.1142   -0.4337    0.0000
C  -19.3630    0.4502   -0.0000
C  -20.6126   -0.4326    0.0000
C  -21.8615    0.4513   -0.0000
C  -23.1111   -0.4315    0.0000
C  -24.3600    0.4524   -0.0000
C  -25.6096   -0.4304    0.0000
C  -26.8585    0.4535   -0.0000
C  -28.1081   -0.4293    0.0000
C  -29.3569    0.4546   -0.0000
C  -30.6066   -0.4282    0.0000
C  -31.8554    0.4557   -0.0000
C  -33.1050   -0.4271    0.0000
C  -34.3539    0.4568   -0.0000
C  -35.6035   -0.4260    0.0000
C  -36.8524    0.4579   -0.0000
C  -38.1020   -0.4249    0.0000
C  -39.3509    0.4590   -0.0000
C  -40.6005   -0.4238    0.0000
C  -41.8493    0.4601   -0.0000
C  -43.0990   -0.4227    0.0000
C  -44.3478    0.4612   -0.0000
C  -45.5974   -0.4216    0.0000
H   45.5977    1.0509    0.8900
H   46.4871   -0.2081   -0.0000
H   45.5977    1.0509   -0.8900
H   44.3475   -1.0905   -0.8900
H   44.3475   -1.0905    0.8900
H   43.0992    1.0520    0.8900
H   43.0992    1.0520   -0.8900
H   41.8491   -1.0894   -0.8900
H   41.8491   -1.0894    0.8900
H   40.6008    1.0531    0.8900
H   40.6008    1.0531   -0.8900
H   39.3506   -1.0883   -0.8900
H   39.3506   -1.0883    0.8900
H   38.1023    1.0542    0.8900
H   38.1023    1.0542   -0.8900
H   36.8521   -1.0872   -0.8900
H   36.8521   -1.0872    0.8900
H   35.6038    1.0553    0.8900
H   35.6038    1.0553   -0.8900
H   34.3536   -1.0861   -0.8900
H   34.3536   -1.0861    0.8900
H   33.1053    1.0564    0.8900
H   33.1053    1.0564   -0.8900
H   31.8551   -1.0850   -0.8900
H   31.8551   -1.0850    0.8900
H   30.6068    1.0575    0.8900
H   30.6068    1.0575   -0.8900
H   29.3567   -1.0839   -0.8900
H   29.3567   -1.0839    0.8900
H   28.1084    1.0586    0.8900
H   28.1084    1.0586   -0.8900
H   26.8582   -1.0828   -0.8900
H   26.8582   -1.0828    0.8900
H   25.6099    1.0597    0.8900
H   25.6099    1.0597   -0.8900
H   24.3597   -1.0817   -0.8900
H   24.3597   -1.0817    0.8900
H   23.1114    1.0608    0.8900
H   23.1114    1.0608   -0.8900
H   21.8612   -1.0806   -0.8900
H   21.8612   -1.0806    0.8900
H   20.6129    1.0619    0.8900
H   20.6129    1.0619   -0.8900
H   19.3627   -1.0795   -0.8900
H   19.3627   -1.0795    0.8900
H   18.1144    1.0630    0.8900
H   18.1144    1.0630   -0.8900
H   16.8643   -1.0784   -0.8900
H   16.8643   -1.0784    0.8900
H   15.6160    1.0641    0.8900
H   15.6160    1.0641   -0.8900
H   14.3658   -1.0773   -0.8900
H   14.3658   -1.0773    0.8900
H   13.1175    1.0652    0.8900
H   13.1175    1.0652   -0.8900
H   11.8673   -1.0762   -0.8900
H   11.8673   -1.0762    0.8900
H   10.6190    1.0663    0.8900
H   10.6190    1.0663   -0.8900
H    9.3688   -1.0751   -0.8900
H    9.3688   -1.0751    0.8900
H    8.1205    1.0674    0.8900
H    8.1205    1.0674   -0.8900
H    6.8703   -1.0740   -0.8900
H    6.8703   -1.0740    0.8900
H    5.6221    1.0685    0.8900
H    5.6221    1.0685   -0.8900
H    4.3719   -1.0729   -0.8900
H    4.3719   -1.0729    0.8900
H    3.1236    1.0696    0.8900
H    3.1236    1.0696   -0.8900
H    1.8734   -1.0718   -0.8900
H    1.8734   -1.0718    0.8900
H    0.6251    1.0707    0.8900
H    0.6251    1.0707   -0.8900
H   -0.6251   -1.0707   -0.8900
H   -0.6251   -1.0707    0.8900
H   -1.8734    1.0718    0.8900
H   -1.8734    1.0718   -0.8900
H   -3.1236   -1.0696   -0.8900
H   -3.1236   -1.0696    0.8900
H   -4.3719    1.0729    0.8900
H   -4.3719    1.0729   -0.8900
H   -5.6221   -1.0685   -0.8900
H   -5.6221   -1.0685    0.8900
H   -6.8703    1.0740    0.8900
H   -6.8703    1.0740   -0.8900
H   -8.1205   -1.0674   -0.8900
H   -8.1205   -1.0674    0.8900
H   -9.3688    1.0751    0.8900
H   -9.3688    1.0751   -0.8900
H  -10.6190   -1.0663   -0.8900
H  -10.6190   -1.0663    0.8900
H  -11.8673    1.0762    0.8900
H  -11.8673    1.0762   -0.8900
H  -13.1175   -1.0652   -0.8900
H  -13.1175   -1.0652    0.8900
H  -14.3658    1.0773    0.8900
H  -14.3658    1.0773   -0.8900
H  -15.6160   -1.0641   -0.8900
H  -15.6160   -1.0641    0.8900
H  -16.8643    1.0784    0.8900
H  -16.8643    1.0784   -0.8900
H  -18.1144   -1.0630   -0.8900
H  -18.1144   -1.0630    0.8900
H  -19.3627    1.0795    0.8900
H  -19.3627    1.0795   -0.8900
H  -20.6129   -1.0619   -0.8900
H  -20.6129   -1.0619    0.8900
H  -21.8612    1.0806    0.8900
H  -21.8612    1.0806   -0.8900
H  -23.1114   -1.0608   -0.8900
H  -23.1114   -1.0608    0.8900
H  -24.3597    1.0817    0.8900
H  -24.3597    1.0817   -0.8900
H  -25.6099   -1.0597   -0.8900
H  -25.6099   -1.0597    0.8900
H  -26.8582    1.0828    0.8900
H  -26.8582    1.0828   -0.8900
H  -28.1084   -1.0586   -0.8900
H  -28.1084   -1.0586    0.8900
H  -29.3567    1.0839    0.8900
H  -29.3567    1.0839   -0.8900
H  -30.6068   -1.0575   -0.8900
H  -30.6068   -1.0575    0.8900
H  -31.8551    1.0850    0.8900
H  -31.8551    1.0850   -0.8900
H  -33.1053   -1.0564   -0.8900
H  -33.1053   -1.0564    0.8900
H  -34.3536    1.0861    0.8900
H  -34.3536    1.0861   -0.8900
H  -35.6038   -1.0553   -0.8900
H  -35.6038   -1.0553    0.8900
H  -36.8521    1.0872    0.8900
H  -36.8521    1.0872   -0.8900
H  -38.1023   -1.0542   -0.8900
H  -38.1023   -1.0542    0.8900
H  -39.3506    1.0883    0.8900
H  -39.3506    1.0883   -0.8900
H  -40.6008   -1.0531   -0.8900
H  -40.6008   -1.0531    0.8900
H  -41.8491    1.0894    0.8900
H  -41.8491    1.0894   -0.8900
H  -43.0992   -1.0520   -0.8900
H  -43.0992   -1.0520    0.8900
H  -44.3475    1.0905    0.8900
H  -44.3475    1.0905   -0.8900
H  -46.4871    0.2081   -0.0000
H  -45.5977   -1.0509   -0.8900
H  -45.5977   -1.0509    0.8900
