104
C34H70
C   20.6133   -0.3989   -0.0000
C   19.3623    0.4819    0.0000
C   18.1149   -0.4041   -0.0000
C   16.8638    0.4767    0.0000
C   15.6164   -0.4092   -0.0000
C   14.3653    0.4715    0.0000
C   13.1179   -0.4144   -0.0000
C   11.8668    0.4663    0.0000
C   10.6194   -0.4196   -0.0000
C    9.3684    0.4611    0.0000
C    8.1210   -0.4248   -0.0000
C    6.8699    0.4559    0.0000
C    5.6225   -0.4300   -0.0000
C    4.3714    0.4508    0.0000
C    3.1240   -0.4352   -0.0000
C    1.8729    0.4456    0.0000
C    0.6255   -0.4404   -0.0000
C   -0.6255    0.4404    0.0000
C   -1.8729   -0.4456   -0.0000
C   -3.1240    0.4352    0.0000
C   -4.3714   -0.4508   -0.0000
C   -5.6225    0.4300    0.0000
C   -6.8699   -0.4559   -0.0000
C   -8.1210    0.4248    0.0000
C   -9.3684   -0.4611   -0.0000
C  -10.6194    0.4196    0.0000
C  -11.8668   -0.4663   -0.0000
C  -13.1179    0.4144    0.0000
C  -14.3653   -0.4715   -0.0000
C  -15.6164    0.4092    0.0000
C  -16.8638   -0.4767   -0.0000
C  -18.1149    0.4041    0.0000
C  -19.3623   -0.4819   -0.0000
C  -20.6133    0.3989    0.0000
H   20.6146   -1.0282    0.8900
H   20.6146   -1.0282   -0.8900
H   21.5020    0.2323    0.0000
H   19.3610    1.1112    0.8900
H   19.3610    1.1112   -0.8900
H   18.1162   -1.0334   -0.8900
H   18.1162   -1.0334    0.8900
H   16.8625    1.1060    0.8900
H   16.8625    1.1060   -0.8900
H   15.6177   -1.0386   -0.8900
H   15.6177   -1.0386    0.8900
H   14.3640    1.1008    0.8900
H   14.3640    1.1008   -0.8900
H   13.1192   -1.0437   -0.8900
H   13.1192   -1.0437    0.8900
H   11.8655    1.0956    0.8900
H   11.8655    1.0956   -0.8900
H   10.6207   -1.0489   -0.8900
H   10.6207   -1.0489    0.8900
H    9.3671    1.0904    0.8900
H    9.3671    1.0904   -0.8900
H    8.1223   -1.0541   -0.8900
H    8.1223   -1.0541    0.8900
H    6.8686    1.0853    0.8900
H    6.8686    1.0853   -0.8900
H    5.6238   -1.0593   -0.8900
H    5.6238   -1.0593    0.8900
H    4.3701    1.0801    0.8900
H    4.3701    1.0801   -0.8900
H    3.1253   -1.0645   -0.8900
H    3.1253   -1.0645    0.8900
H    1.8716    1.0749    0.8900
H    1.8716    1.0749   -0.8900
H    0.6268   -1.0697   -0.8900
H    0.6268   -1.0697    0.8900
H   -0.6268    1.0697    0.8900
H   -0.6268    1.0697   -0.8900
H   -1.8716   -1.0749   -0.8900
H   -1.8716   -1.0749    0.8900
H   -3.1253    1.0645    0.8900
H   -3.1253    1.0645   -0.8900
H   -4.3701   -1.0801   -0.8900
H   -4.3701   -1.0801    0.8900
H   -5.6238    1.0593    0.8900
H   -5.6238    1.0593   -0.8900
H   -6.8686   -1.0853   -0.8900
H   -6.8686   -1.0853    0.8900
H   -8.1223    1.0541    0.8900
H   -8.1223    1.0541   -0.8900
H   -9.3671   -1.0904   -0.8900
H   -9.3671   -1.0904    0.8900
H  -10.6207    1.0489    0.8900
H  -10.6207    1.0489   -0.8900
H  -11.8655   -1.0956   -0.8900
H  -11.8655   -1.0956    0.8900
H  -13.1192    1.0437    0.8900
H  -13.1192    1.0437   -0.8900
H  -14.3640   -1.1008   -0.8900
H  -14.3640   -1.1008    0.8900
H  -15.6177    1.0386    0.8900
H  -15.6177    1.0386   -0.8900
H  -16.8625   -1.1060   -0.8900
H  -16.8625   -1.1060    0.8900
H  -18.1162    1.0334    0.8900
H  -18.1162    1.0334   -0.8900
H  -19.3610   -1.1112   -0.8900
H  -19.3610   -1.1112    0.8900
H  -21.5020   -0.2323   -0.0000
H  -20.6146    1.0282    0.8900
H  -20.6146    1.0282   -0.8900
