344
C114H230
C   70.5821   -0.4285   -0.0000
C   69.3327    0.4546    0.0000
C   68.0836   -0.4290   -0.0000
C   66.8342    0.4541    0.0000
C   65.5852   -0.4295   -0.0000
C   64.3358    0.4536    0.0000
C   63.0867   -0.4299   -0.0000
C   61.8373    0.4532    0.0000
C   60.5882   -0.4304   -0.0000
C   59.3388    0.4527    0.0000
C   58.0897   -0.4309   -0.0000
C   56.8403    0.4522    0.0000
C   55.5912   -0.4313   -0.0000
C   54.3418    0.4518    0.0000
C   53.0928   -0.4318   -0.0000
C   51.8434    0.4513    0.0000
C   50.5943   -0.4323   -0.0000
C   49.3449    0.4509    0.0000
C   48.0958   -0.4327   -0.0000
C   46.8464    0.4504    0.0000
C   45.5973   -0.4332   -0.0000
C   44.3479    0.4499    0.0000
C   43.0989   -0.4337   -0.0000
C   41.8494    0.4495    0.0000
C   40.6004   -0.4341   -0.0000
C   39.3510    0.4490    0.0000
C   38.1019   -0.4346   -0.0000
C   36.8525    0.4485    0.0000
C   35.6034   -0.4351   -0.0000
C   34.3540    0.4481    0.0000
C   33.1049   -0.4355   -0.0000
C   31.8555    0.4476    0.0000
C   30.6065   -0.4360   -0.0000
C   29.3571    0.4471    0.0000
C   28.1080   -0.4364   -0.0000
C   26.8586    0.4467    0.0000
C   25.6095   -0.4369   -0.0000
C   24.3601    0.4462    0.0000
C   23.1110   -0.4374   -0.0000
C   21.8616    0.4457    0.0000
C   20.6125   -0.4378   -0.0000
C   19.3631    0.4453    0.0000
C   18.1141   -0.4383   -0.0000
C   16.8647    0.4448    0.0000
C   15.6156   -0.4388   -0.0000
C   14.3662    0.4443    0.0000
C   13.1171   -0.4392   -0.0000
C   11.8677    0.4439    0.0000
C   10.6186   -0.4397   -0.0000
C    9.3692    0.4434    0.0000
C    8.1201   -0.4402   -0.0000
C    6.8707    0.4430    0.0000
C    5.6217   -0.4406   -0.0000
C    4.3723    0.4425    0.0000
C    3.1232   -0.4411   -0.0000
C    1.8738    0.4420    0.0000
C    0.6247   -0.4416    0.0000
C   -0.6247    0.4416    0.0000
C   -1.8738   -0.4420    0.0000
C   -3.1232    0.4411   -0.0000
C   -4.3723   -0.4425    0.0000
C   -5.6217    0.4406   -0.0000
C   -6.8707   -0.4430    0.0000
C   -8.1201    0.4402   -0.0000
C   -9.3692   -0.4434    0.0000
C  -10.6186    0.4397   -0.0000
C  -11.8677   -0.4439    0.0000
C  -13.1171    0.4392   -0.0000
C  -14.3662   -0.4443    0.0000
C  -15.6156    0.4388   -0.0000
C  -16.8647   -0.4448    0.0000
C  -18.1141    0.4383   -0.0000
C  -19.3631   -0.4453    0.0000
C  -20.6125    0.4378   -0.0000
C  -21.8616   -0.4457    0.0000
C  -23.1110    0.4374   -0.0000
C  -24.3601   -0.4462    0.0000
C  -25.6095    0.4369   -0.0000
C  -26.8586   -0.4467    0.0000
C  -28.1080    0.4364   -0.0000
C  -29.3571   -0.4471    0.0000
C  -30.6065    0.4360   -0.0000
C  -31.8555   -0.4476    0.0000
C  -33.1049    0.4355   -0.0000
C  -34.3540   -0.4481    0.0000
C  -35.6034    0.4351   -0.0000
C  -36.8525   -0.4485    0.0000
C  -38.1019    0.4346   -0.0000
C  -39.3510   -0.4490    0.0000
C  -40.6004    0.4341   -0.0000
C  -41.8494   -0.4495    0.0000
C  -43.0989    0.4337   -0.0000
C  -44.3479   -0.4499    0.0000
C  -45.5973    0.4332   -0.0000
C  -46.8464   -0.4504    0.0000
C  -48.0958    0.4327   -0.0000
C  -49.3449   -0.4509    0.0000
C  -50.5943    0.4323   -0.0000
C  -51.8434   -0.4513    0.0000
C  -53.0928    0.4318   -0.0000
C  -54.3418   -0.4518    0.0000
C  -55.5912    0.4313   -0.0000
C  -56.8403   -0.4522    0.0000
C  -58.0897    0.4309   -0.0000
C  -59.3388   -0.4527    0.0000
C  -60.5882    0.4304   -0.0000
C  -61.8373   -0.4532    0.0000
C  -63.0867    0.4299   -0.0000
C  -64.3358   -0.4536    0.0000
C  -65.5852    0.4295   -0.0000
C  -66.8342   -0.4541    0.0000
C  -68.0836    0.4290   -0.0000
C  -69.3327   -0.4546    0.0000
C  -70.5821    0.4285   -0.0000
H   71.4720    0.2009    0.0000
H   70.5822   -1.0579    0.8900
H   70.5822   -1.0579   -0.8900
H   69.3326    1.0839    0.8900
H   69.3326    1.0839   -0.8900
H   68.0838   -1.0583   -0.8900
H   68.0838   -1.0583    0.8900
H   66.8341    1.0834    0.8900
H   66.8341    1.0834   -0.8900
H   65.5853   -1.0588   -0.8900
H   65.5853   -1.0588    0.8900
H   64.3356    1.0829    0.8900
H   64.3356    1.0830   -0.8900
H   63.0868   -1.0592   -0.8900
H   63.0868   -1.0593    0.8900
H   61.8372    1.0825    0.8900
H   61.8372    1.0825   -0.8900
H   60.5883   -1.0597   -0.8900
H   60.5883   -1.0597    0.8900
H   59.3387    1.0820    0.8900
H   59.3387    1.0820   -0.8900
H   58.0898   -1.0602   -0.8900
H   58.0898   -1.0602    0.8900
H   56.8402    1.0816    0.8900
H   56.8402    1.0816   -0.8900
H   55.5914   -1.0606   -0.8900
H   55.5914   -1.0606    0.8900
H   54.3417    1.0811    0.8900
H   54.3417    1.0811   -0.8900
H   53.0929   -1.0611   -0.8900
H   53.0929   -1.0611    0.8900
H   51.8433    1.0806    0.8900
H   51.8433    1.0806   -0.8900
H   50.5944   -1.0616   -0.8900
H   50.5944   -1.0616    0.8900
H   49.3448    1.0802    0.8900
H   49.3448    1.0802   -0.8900
H   48.0959   -1.0620   -0.8900
H   48.0959   -1.0620    0.8900
H   46.8463    1.0797    0.8900
H   46.8463    1.0797   -0.8900
H   45.5975   -1.0625   -0.8900
H   45.5975   -1.0625    0.8900
H   44.3478    1.0792    0.8900
H   44.3478    1.0792   -0.8900
H   43.0990   -1.0630   -0.8900
H   43.0990   -1.0630    0.8900
H   41.8493    1.0788    0.8900
H   41.8493    1.0788   -0.8900
H   40.6005   -1.0634   -0.8900
H   40.6005   -1.0634    0.8900
H   39.3509    1.0783    0.8900
H   39.3509    1.0783   -0.8900
H   38.1020   -1.0639   -0.8900
H   38.1020   -1.0639    0.8900
H   36.8524    1.0778    0.8900
H   36.8524    1.0778   -0.8900
H   35.6035   -1.0644   -0.8900
H   35.6035   -1.0644    0.8900
H   34.3539    1.0774    0.8900
H   34.3539    1.0774   -0.8900
H   33.1051   -1.0648   -0.8900
H   33.1051   -1.0648    0.8900
H   31.8554    1.0769    0.8900
H   31.8554    1.0769   -0.8900
H   30.6066   -1.0653   -0.8900
H   30.6066   -1.0653    0.8900
H   29.3569    1.0764    0.8900
H   29.3569    1.0764   -0.8900
H   28.1081   -1.0658   -0.8900
H   28.1081   -1.0658    0.8900
H   26.8585    1.0760    0.8900
H   26.8585    1.0760   -0.8900
H   25.6096   -1.0662   -0.8900
H   25.6096   -1.0662    0.8900
H   24.3600    1.0755    0.8900
H   24.3600    1.0755   -0.8900
H   23.1111   -1.0667   -0.8900
H   23.1111   -1.0667    0.8900
H   21.8615    1.0750    0.8900
H   21.8615    1.0751   -0.8900
H   20.6127   -1.0671   -0.8900
H   20.6127   -1.0672    0.8900
H   19.3630    1.0746    0.8900
H   19.3630    1.0746   -0.8900
H   18.1142   -1.0676   -0.8900
H   18.1142   -1.0676    0.8900
H   16.8645    1.0741    0.8900
H   16.8645    1.0741   -0.8900
H   15.6157   -1.0681   -0.8900
H   15.6157   -1.0681    0.8900
H   14.3661    1.0737    0.8900
H   14.3661    1.0737   -0.8900
H   13.1172   -1.0685   -0.8900
H   13.1172   -1.0685    0.8900
H   11.8676    1.0732    0.8900
H   11.8676    1.0732   -0.8900
H   10.6187   -1.0690   -0.8900
H   10.6187   -1.0690    0.8900
H    9.3691    1.0727    0.8900
H    9.3691    1.0727   -0.8900
H    8.1203   -1.0695   -0.8900
H    8.1203   -1.0695    0.8900
H    6.8706    1.0723    0.8900
H    6.8706    1.0723   -0.8900
H    5.6218   -1.0699   -0.8900
H    5.6218   -1.0699    0.8900
H    4.3721    1.0718    0.8900
H    4.3721    1.0718   -0.8900
H    3.1233   -1.0704   -0.8900
H    3.1233   -1.0704    0.8900
H    1.8737    1.0713    0.8900
H    1.8737    1.0713   -0.8900
H    0.6248   -1.0709   -0.8900
H    0.6248   -1.0709    0.8900
H   -0.6248    1.0709    0.8900
H   -0.6248    1.0709   -0.8900
H   -1.8737   -1.0713   -0.8900
H   -1.8737   -1.0713    0.8900
H   -3.1233    1.0704    0.8900
H   -3.1233    1.0704   -0.8900
H   -4.3721   -1.0718   -0.8900
H   -4.3721   -1.0718    0.8900
H   -5.6218    1.0699    0.8900
H   -5.6218    1.0699   -0.8900
H   -6.8706   -1.0723   -0.8900
H   -6.8706   -1.0723    0.8900
H   -8.1203    1.0695    0.8900
H   -8.1203    1.0695   -0.8900
H   -9.3691   -1.0727   -0.8900
H   -9.3691   -1.0727    0.8900
H  -10.6187    1.0690    0.8900
H  -10.6187    1.0690   -0.8900
H  -11.8676   -1.0732   -0.8900
H  -11.8676   -1.0732    0.8900
H  -13.1172    1.0685    0.8900
H  -13.1172    1.0685   -0.8900
H  -14.3661   -1.0737   -0.8900
H  -14.3661   -1.0737    0.8900
H  -15.6157    1.0681    0.8900
H  -15.6157    1.0681   -0.8900
H  -16.8645   -1.0741   -0.8900
H  -16.8645   -1.0741    0.8900
H  -18.1142    1.0676    0.8900
H  -18.1142    1.0676   -0.8900
H  -19.3630   -1.0746   -0.8900
H  -19.3630   -1.0746    0.8900
H  -20.6127    1.0672    0.8900
H  -20.6127    1.0671   -0.8900
H  -21.8615   -1.0751   -0.8900
H  -21.8615   -1.0750    0.8900
H  -23.1111    1.0667    0.8900
H  -23.1111    1.0667   -0.8900
H  -24.3600   -1.0755   -0.8900
H  -24.3600   -1.0755    0.8900
H  -25.6096    1.0662    0.8900
H  -25.6096    1.0662   -0.8900
H  -26.8585   -1.0760   -0.8900
H  -26.8585   -1.0760    0.8900
H  -28.1081    1.0658    0.8900
H  -28.1081    1.0658   -0.8900
H  -29.3569   -1.0764   -0.8900
H  -29.3569   -1.0764    0.8900
H  -30.6066    1.0653    0.8900
H  -30.6066    1.0653   -0.8900
H  -31.8554   -1.0769   -0.8900
H  -31.8554   -1.0769    0.8900
H  -33.1051    1.0648    0.8900
H  -33.1051    1.0648   -0.8900
H  -34.3539   -1.0774   -0.8900
H  -34.3539   -1.0774    0.8900
H  -35.6035    1.0644    0.8900
H  -35.6035    1.0644   -0.8900
H  -36.8524   -1.0778   -0.8900
H  -36.8524   -1.0778    0.8900
H  -38.1020    1.0639    0.8900
H  -38.1020    1.0639   -0.8900
H  -39.3509   -1.0783   -0.8900
H  -39.3509   -1.0783    0.8900
H  -40.6005    1.0634    0.8900
H  -40.6005    1.0634   -0.8900
H  -41.8493   -1.0788   -0.8900
H  -41.8493   -1.0788    0.8900
H  -43.0990    1.0630    0.8900
H  -43.0990    1.0630   -0.8900
H  -44.3478   -1.0792   -0.8900
H  -44.3478   -1.0792    0.8900
H  -45.5975    1.0625    0.8900
H  -45.5975    1.0625   -0.8900
H  -46.8463   -1.0797   -0.8900
H  -46.8463   -1.0797    0.8900
H  -48.0959    1.0620    0.8900
H  -48.0959    1.0620   -0.8900
H  -49.3448   -1.0802   -0.8900
H  -49.3448   -1.0802    0.8900
H  -50.5944    1.0616    0.8900
H  -50.5944    1.0616   -0.8900
H  -51.8433   -1.0806   -0.8900
H  -51.8433   -1.0806    0.8900
H  -53.0929    1.0611    0.8900
H  -53.0929    1.0611   -0.8900
H  -54.3417   -1.0811   -0.8900
H  -54.3417   -1.0811    0.8900
H  -55.5914    1.0606    0.8900
H  -55.5914    1.0606   -0.8900
H  -56.8402   -1.0816   -0.8900
H  -56.8402   -1.0816    0.8900
H  -58.0898    1.0602    0.8900
H  -58.0898    1.0602   -0.8900
H  -59.3387   -1.0820   -0.8900
H  -59.3387   -1.0820    0.8900
H  -60.5883    1.0597    0.8900
H  -60.5883    1.0597   -0.8900
H  -61.8372   -1.0825   -0.8900
H  -61.8372   -1.0825    0.8900
H  -63.0868    1.0593    0.8900
H  -63.0868    1.0592   -0.8900
H  -64.3356   -1.0830   -0.8900
H  -64.3356   -1.0829    0.8900
H  -65.5853    1.0588    0.8900
H  -65.5853    1.0588   -0.8900
H  -66.8341   -1.0834   -0.8900
H  -66.8341   -1.0834    0.8900
H  -68.0838    1.0583    0.8900
H  -68.0838    1.0583   -0.8900
H  -69.3326   -1.0839   -0.8900
H  -69.3326   -1.0839    0.8900
H  -70.5822    1.0579    0.8900
H  -70.5822    1.0579   -0.8900
H  -71.4720   -0.2009    0.0000
