314
C104H210
C   64.3359   -0.4273   -0.0000
C   63.0865    0.4558    0.0000
C   61.8375   -0.4279   -0.0000
C   60.5880    0.4552    0.0000
C   59.3390   -0.4284   -0.0000
C   58.0895    0.4547    0.0000
C   56.8405   -0.4290   -0.0000
C   55.5911    0.4541    0.0000
C   54.3420   -0.4295   -0.0000
C   53.0926    0.4535    0.0000
C   51.8435   -0.4301   -0.0000
C   50.5941    0.4530    0.0000
C   49.3451   -0.4306   -0.0000
C   48.0956    0.4524    0.0000
C   46.8466   -0.4312   -0.0000
C   45.5971    0.4519    0.0000
C   44.3481   -0.4318   -0.0000
C   43.0987    0.4513    0.0000
C   41.8496   -0.4323   -0.0000
C   40.6002    0.4507    0.0000
C   39.3512   -0.4329   -0.0000
C   38.1017    0.4502    0.0000
C   36.8527   -0.4334   -0.0000
C   35.6032    0.4496    0.0000
C   34.3542   -0.4340   -0.0000
C   33.1048    0.4491    0.0000
C   31.8557   -0.4346   -0.0000
C   30.6063    0.4485    0.0000
C   29.3572   -0.4351   -0.0000
C   28.1078    0.4480    0.0000
C   26.8588   -0.4357   -0.0000
C   25.6093    0.4474    0.0000
C   24.3603   -0.4362   -0.0000
C   23.1108    0.4468    0.0000
C   21.8618   -0.4368   -0.0000
C   20.6124    0.4463    0.0000
C   19.3633   -0.4373   -0.0000
C   18.1139    0.4457    0.0000
C   16.8648   -0.4379   -0.0000
C   15.6154    0.4452    0.0000
C   14.3664   -0.4385   -0.0000
C   13.1169    0.4446    0.0000
C   11.8679   -0.4390   -0.0000
C   10.6184    0.4440    0.0000
C    9.3694   -0.4396   -0.0000
C    8.1200    0.4435    0.0000
C    6.8709   -0.4401   -0.0000
C    5.6215    0.4429    0.0000
C    4.3724   -0.4407   -0.0000
C    3.1230    0.4424    0.0000
C    1.8740   -0.4413   -0.0000
C    0.6245    0.4418    0.0000
C   -0.6245   -0.4418    0.0000
C   -1.8740    0.4413   -0.0000
C   -3.1230   -0.4424    0.0000
C   -4.3724    0.4407   -0.0000
C   -5.6215   -0.4429    0.0000
C   -6.8709    0.4401   -0.0000
C   -8.1200   -0.4435    0.0000
C   -9.3694    0.4396   -0.0000
C  -10.6184   -0.4440    0.0000
C  -11.8679    0.4390   -0.0000
C  -13.1169   -0.4446    0.0000
C  -14.3664    0.4385   -0.0000
C  -15.6154   -0.4452    0.0000
C  -16.8648    0.4379   -0.0000
C  -18.1139   -0.4457    0.0000
C  -19.3633    0.4373   -0.0000
C  -20.6124   -0.4463    0.0000
C  -21.8618    0.4368   -0.0000
C  -23.1108   -0.4468    0.0000
C  -24.3603    0.4362   -0.0000
C  -25.6093   -0.4474    0.0000
C  -26.8588    0.4357   -0.0000
C  -28.1078   -0.4480    0.0000
C  -29.3572    0.4351   -0.0000
C  -30.6063   -0.4485    0.0000
C  -31.8557    0.4346   -0.0000
C  -33.1048   -0.4491    0.0000
C  -34.3542    0.4340   -0.0000
C  -35.6032   -0.4496    0.0000
C  -36.8527    0.4334   -0.0000
C  -38.1017   -0.4502    0.0000
C  -39.3512    0.4329   -0.0000
C  -40.6002   -0.4507    0.0000
C  -41.8496    0.4323   -0.0000
C  -43.0987   -0.4513    0.0000
C  -44.3481    0.4318   -0.0000
C  -45.5971   -0.4519    0.0000
C  -46.8466    0.4312   -0.0000
C  -48.0956   -0.4524    0.0000
C  -49.3451    0.4306   -0.0000
C  -50.5941   -0.4530    0.0000
C  -51.8435    0.4301   -0.0000
C  -53.0926   -0.4535    0.0000
C  -54.3420    0.4295   -0.0000
C  -55.5911   -0.4541    0.0000
C  -56.8405    0.4290   -0.0000
C  -58.0895   -0.4547    0.0000
C  -59.3390    0.4284   -0.0000
C  -60.5880   -0.4552    0.0000
C  -61.8375    0.4279   -0.0000
C  -63.0865   -0.4558    0.0000
C  -64.3359    0.4273   -0.0000
H   65.2258    0.2022    0.0000
H   64.3361   -1.0566    0.8900
H   64.3361   -1.0566   -0.8900
H   63.0864    1.0851    0.8900
H   63.0864    1.0851   -0.8900
H   61.8376   -1.0572   -0.8900
H   61.8376   -1.0572    0.8900
H   60.5879    1.0845    0.8900
H   60.5879    1.0845   -0.8900
H   59.3391   -1.0577   -0.8900
H   59.3391   -1.0577    0.8900
H   58.0894    1.0840    0.8900
H   58.0894    1.0840   -0.8900
H   56.8406   -1.0583   -0.8900
H   56.8406   -1.0583    0.8900
H   55.5909    1.0834    0.8900
H   55.5909    1.0834   -0.8900
H   54.3422   -1.0588   -0.8900
H   54.3422   -1.0588    0.8900
H   53.0924    1.0828    0.8900
H   53.0924    1.0828   -0.8900
H   51.8437   -1.0594   -0.8900
H   51.8437   -1.0594    0.8900
H   50.5940    1.0823    0.8900
H   50.5940    1.0823   -0.8900
H   49.3452   -1.0600   -0.8900
H   49.3452   -1.0600    0.8900
H   48.0955    1.0817    0.8900
H   48.0955    1.0817   -0.8900
H   46.8467   -1.0605   -0.8900
H   46.8467   -1.0605    0.8900
H   45.5970    1.0812    0.8900
H   45.5970    1.0812   -0.8900
H   44.3482   -1.0611   -0.8900
H   44.3482   -1.0611    0.8900
H   43.0985    1.0806    0.8900
H   43.0985    1.0806   -0.8900
H   41.8498   -1.0616   -0.8900
H   41.8498   -1.0616    0.8900
H   40.6001    1.0801    0.8900
H   40.6001    1.0801   -0.8900
H   39.3513   -1.0622   -0.8900
H   39.3513   -1.0622    0.8900
H   38.1016    1.0795    0.8900
H   38.1016    1.0795   -0.8900
H   36.8528   -1.0627   -0.8900
H   36.8528   -1.0628    0.8900
H   35.6031    1.0789    0.8900
H   35.6031    1.0789   -0.8900
H   34.3543   -1.0633   -0.8900
H   34.3543   -1.0633    0.8900
H   33.1046    1.0784    0.8900
H   33.1046    1.0784   -0.8900
H   31.8559   -1.0639   -0.8900
H   31.8559   -1.0639    0.8900
H   30.6061    1.0778    0.8900
H   30.6061    1.0778   -0.8900
H   29.3574   -1.0644   -0.8900
H   29.3574   -1.0644    0.8900
H   28.1077    1.0773    0.8900
H   28.1077    1.0773   -0.8900
H   26.8589   -1.0650   -0.8900
H   26.8589   -1.0650    0.8900
H   25.6092    1.0767    0.8900
H   25.6092    1.0767   -0.8900
H   24.3604   -1.0655   -0.8900
H   24.3604   -1.0655    0.8900
H   23.1107    1.0761    0.8900
H   23.1107    1.0761   -0.8900
H   21.8619   -1.0661   -0.8900
H   21.8619   -1.0661    0.8900
H   20.6122    1.0756    0.8900
H   20.6122    1.0756   -0.8900
H   19.3635   -1.0667   -0.8900
H   19.3635   -1.0667    0.8900
H   18.1137    1.0750    0.8900
H   18.1137    1.0750   -0.8900
H   16.8650   -1.0672   -0.8900
H   16.8650   -1.0672    0.8900
H   15.6153    1.0745    0.8900
H   15.6153    1.0745   -0.8900
H   14.3665   -1.0678   -0.8900
H   14.3665   -1.0678    0.8900
H   13.1168    1.0739    0.8900
H   13.1168    1.0739   -0.8900
H   11.8680   -1.0683   -0.8900
H   11.8680   -1.0683    0.8900
H   10.6183    1.0734    0.8900
H   10.6183    1.0734   -0.8900
H    9.3695   -1.0689   -0.8900
H    9.3695   -1.0689    0.8900
H    8.1198    1.0728    0.8900
H    8.1198    1.0728   -0.8900
H    6.8711   -1.0694   -0.8900
H    6.8711   -1.0695    0.8900
H    5.6213    1.0722    0.8900
H    5.6213    1.0722   -0.8900
H    4.3726   -1.0700   -0.8900
H    4.3726   -1.0700    0.8900
H    3.1229    1.0717    0.8900
H    3.1229    1.0717   -0.8900
H    1.8741   -1.0706   -0.8900
H    1.8741   -1.0706    0.8900
H    0.6244    1.0711    0.8900
H    0.6244    1.0711   -0.8900
H   -0.6244   -1.0711   -0.8900
H   -0.6244   -1.0711    0.8900
H   -1.8741    1.0706    0.8900
H   -1.8741    1.0706   -0.8900
H   -3.1229   -1.0717   -0.8900
H   -3.1229   -1.0717    0.8900
H   -4.3726    1.0700    0.8900
H   -4.3726    1.0700   -0.8900
H   -5.6213   -1.0722   -0.8900
H   -5.6213   -1.0722    0.8900
H   -6.8711    1.0695    0.8900
H   -6.8711    1.0694   -0.8900
H   -8.1198   -1.0728   -0.8900
H   -8.1198   -1.0728    0.8900
H   -9.3695    1.0689    0.8900
H   -9.3695    1.0689   -0.8900
H  -10.6183   -1.0734   -0.8900
H  -10.6183   -1.0734    0.8900
H  -11.8680    1.0683    0.8900
H  -11.8680    1.0683   -0.8900
H  -13.1168   -1.0739   -0.8900
H  -13.1168   -1.0739    0.8900
H  -14.3665    1.0678    0.8900
H  -14.3665    1.0678   -0.8900
H  -15.6153   -1.0745   -0.8900
H  -15.6153   -1.0745    0.8900
H  -16.8650    1.0672    0.8900
H  -16.8650    1.0672   -0.8900
H  -18.1137   -1.0750   -0.8900
H  -18.1137   -1.0750    0.8900
H  -19.3635    1.0667    0.8900
H  -19.3635    1.0667   -0.8900
H  -20.6122   -1.0756   -0.8900
H  -20.6122   -1.0756    0.8900
H  -21.8619    1.0661    0.8900
H  -21.8619    1.0661   -0.8900
H  -23.1107   -1.0761   -0.8900
H  -23.1107   -1.0761    0.8900
H  -24.3604    1.0655    0.8900
H  -24.3604    1.0655   -0.8900
H  -25.6092   -1.0767   -0.8900
H  -25.6092   -1.0767    0.8900
H  -26.8589    1.0650    0.8900
H  -26.8589    1.0650   -0.8900
H  -28.1077   -1.0773   -0.8900
H  -28.1077   -1.0773    0.8900
H  -29.3574    1.0644    0.8900
H  -29.3574    1.0644   -0.8900
H  -30.6061   -1.0778   -0.8900
H  -30.6061   -1.0778    0.8900
H  -31.8559    1.0639    0.8900
H  -31.8559    1.0639   -0.8900
H  -33.1046   -1.0784   -0.8900
H  -33.1046   -1.0784    0.8900
H  -34.3543    1.0633    0.8900
H  -34.3543    1.0633   -0.8900
H  -35.6031   -1.0789   -0.8900
H  -35.6031   -1.0789    0.8900
H  -36.8528    1.0628    0.8900
H  -36.8528    1.0627   -0.8900
H  -38.1016   -1.0795   -0.8900
H  -38.1016   -1.0795    0.8900
H  -39.3513    1.0622    0.8900
H  -39.3513    1.0622   -0.8900
H  -40.6001   -1.0801   -0.8900
H  -40.6001   -1.0801    0.8900
H  -41.8498    1.0616    0.8900
H  -41.8498    1.0616   -0.8900
H  -43.0985   -1.0806   -0.8900
H  -43.0985   -1.0806    0.8900
H  -44.3482    1.0611    0.8900
H  -44.3482    1.0611   -0.8900
H  -45.5970   -1.0812   -0.8900
H  -45.5970   -1.0812    0.8900
H  -46.8467    1.0605    0.8900
H  -46.8467    1.0605   -0.8900
H  -48.0955   -1.0817   -0.8900
H  -48.0955   -1.0817    0.8900
H  -49.3452    1.0600    0.8900
H  -49.3452    1.0600   -0.8900
H  -50.5940   -1.0823   -0.8900
H  -50.5940   -1.0823    0.8900
H  -51.8437    1.0594    0.8900
H  -51.8437    1.0594   -0.8900
H  -53.0924   -1.0828   -0.8900
H  -53.0924   -1.0828    0.8900
H  -54.3422    1.0588    0.8900
H  -54.3422    1.0588   -0.8900
H  -55.5909   -1.0834   -0.8900
H  -55.5909   -1.0834    0.8900
H  -56.8406    1.0583    0.8900
H  -56.8406    1.0583   -0.8900
H  -58.0894   -1.0840   -0.8900
H  -58.0894   -1.0840    0.8900
H  -59.3391    1.0577    0.8900
H  -59.3391    1.0577   -0.8900
H  -60.5879   -1.0845   -0.8900
H  -60.5879   -1.0845    0.8900
H  -61.8376    1.0572    0.8900
H  -61.8376    1.0572   -0.8900
H  -63.0864   -1.0851   -0.8900
H  -63.0864   -1.0851    0.8900
H  -64.3361    1.0566   -0.8900
H  -65.2258   -0.2022    0.0000
H  -64.3361    1.0566    0.8900
