35
C11H24
C    6.2462   -0.3963   -0.0000
C    4.9970    0.4870    0.0000
C    3.7477   -0.3963   -0.0000
C    2.4985    0.4870    0.0000
C    1.2492   -0.3963   -0.0000
C   -0.0000    0.4870    0.0000
C   -1.2492   -0.3963    0.0000
C   -2.4985    0.4870   -0.0000
C   -3.7477   -0.3963    0.0000
C   -4.9970    0.4870   -0.0000
C   -6.2462   -0.3963    0.0000
H    7.1362    0.2330    0.0000
H    6.2462   -1.0257    0.8900
H    6.2462   -1.0257   -0.8900
H    4.9970    1.1163    0.8900
H    4.9970    1.1163   -0.8900
H    3.7477   -1.0257   -0.8900
H    3.7477   -1.0257    0.8900
H    2.4985    1.1163    0.8900
H    2.4985    1.1163   -0.8900
H    1.2492   -1.0257   -0.8900
H    1.2492   -1.0257    0.8900
H    0.0000    1.1163    0.8900
H   -0.0000    1.1163   -0.8900
H   -1.2492   -1.0257   -0.8900
H   -1.2492   -1.0257    0.8900
H   -2.4985    1.1163    0.8900
H   -2.4985    1.1163   -0.8900
H   -3.7477   -1.0257   -0.8900
H   -3.7477   -1.0257    0.8900
H   -4.9970    1.1163    0.8900
H   -4.9970    1.1163   -0.8900
H   -7.1362    0.2330   -0.0000
H   -6.2462   -1.0257   -0.8900
H   -6.2462   -1.0257    0.8900
