11
C3H8
C    1.2492   -0.2810   -0.0000
C   -0.0000    0.6024   -0.0000
C   -1.2492   -0.2810   -0.0000
H    1.2492   -0.9103    0.8900
H    1.2492   -0.9103   -0.8900
H    2.1392    0.3483   -0.0000
H   -0.0000    1.2317    0.8900
H   -0.0000    1.2317   -0.8900
H   -1.2492   -0.9103    0.8900
H   -2.1392    0.3483    0.0000
H   -1.2492   -0.9103   -0.8900
