331
C110H220O
C   67.4464    0.4059   -0.0355
C   66.2157   -0.4638   -0.0278
C   64.9667    0.4199   -0.0348
C   63.7172   -0.4630   -0.0269
C   62.4682    0.4207   -0.0339
C   61.2187   -0.4623   -0.0260
C   59.9697    0.4214   -0.0330
C   58.7202   -0.4615   -0.0252
C   57.4712    0.4222   -0.0321
C   56.2217   -0.4608   -0.0243
C   54.9728    0.4229   -0.0312
C   53.7233   -0.4600   -0.0234
C   52.4743    0.4236   -0.0304
C   51.2248   -0.4593   -0.0225
C   49.9758    0.4244   -0.0295
C   48.7263   -0.4586   -0.0217
C   47.4773    0.4251   -0.0286
C   46.2278   -0.4578   -0.0208
C   44.9788    0.4259   -0.0277
C   43.7293   -0.4571   -0.0199
C   42.4804    0.4266   -0.0269
C   41.2309   -0.4563   -0.0190
C   39.9819    0.4274   -0.0260
C   38.7324   -0.4556   -0.0182
C   37.4834    0.4281   -0.0251
C   36.2339   -0.4548   -0.0173
C   34.9849    0.4288   -0.0242
C   33.7354   -0.4541   -0.0164
C   32.4864    0.4296   -0.0234
C   31.2369   -0.4534   -0.0155
C   29.9880    0.4303   -0.0225
C   28.7385   -0.4526   -0.0146
C   27.4895    0.4311   -0.0216
C   26.2400   -0.4519   -0.0138
C   24.9910    0.4318   -0.0207
C   23.7415   -0.4511   -0.0129
C   22.4925    0.4326   -0.0199
C   21.2430   -0.4504   -0.0120
C   19.9940    0.4333   -0.0190
C   18.7446   -0.4496   -0.0111
C   17.4956    0.4340   -0.0181
C   16.2461   -0.4489   -0.0103
C   14.9971    0.4348   -0.0172
C   13.7476   -0.4482   -0.0094
C   12.4986    0.4355   -0.0164
C   11.2491   -0.4474   -0.0085
C   10.0001    0.4363   -0.0155
C    8.7506   -0.4467   -0.0076
C    7.5017    0.4370   -0.0146
C    6.2522   -0.4459   -0.0068
C    5.0032    0.4378   -0.0137
C    3.7537   -0.4452   -0.0059
C    2.5047    0.4385   -0.0129
C    1.2552   -0.4444   -0.0050
C    0.0062    0.4392   -0.0120
C   -1.2433   -0.4437   -0.0041
C   -2.4923    0.4400   -0.0111
C   -3.7418   -0.4430   -0.0033
C   -4.9907    0.4407   -0.0102
C   -6.2402   -0.4422   -0.0024
C   -7.4892    0.4415   -0.0094
C   -8.7387   -0.4415   -0.0015
C   -9.9877    0.4422   -0.0085
C  -11.2372   -0.4407   -0.0006
C  -12.4862    0.4430   -0.0076
C  -13.7357   -0.4400    0.0002
C  -14.9847    0.4437   -0.0067
C  -16.2342   -0.4392    0.0011
C  -17.4831    0.4444   -0.0059
C  -18.7326   -0.4385    0.0020
C  -19.9816    0.4452   -0.0050
C  -21.2311   -0.4378    0.0029
C  -22.4801    0.4459   -0.0041
C  -23.7296   -0.4370    0.0037
C  -24.9786    0.4467   -0.0032
C  -26.2281   -0.4363    0.0046
C  -27.4771    0.4474   -0.0023
C  -28.7266   -0.4355    0.0055
C  -29.9755    0.4482   -0.0015
C  -31.2250   -0.4348    0.0064
C  -32.4740    0.4489   -0.0006
C  -33.7235   -0.4340    0.0073
C  -34.9725    0.4496    0.0003
C  -36.2220   -0.4333    0.0081
C  -37.4710    0.4504    0.0012
C  -38.7205   -0.4326    0.0090
C  -39.9695    0.4511    0.0020
C  -41.2190   -0.4318    0.0099
C  -42.4679    0.4519    0.0029
C  -43.7174   -0.4311    0.0108
C  -44.9664    0.4526    0.0038
C  -46.2159   -0.4303    0.0116
C  -47.4649    0.4534    0.0047
C  -48.7144   -0.4296    0.0125
C  -49.9634    0.4541    0.0055
C  -51.2129   -0.4288    0.0134
C  -52.4618    0.4549    0.0064
C  -53.7113   -0.4281    0.0143
C  -54.9603    0.4556    0.0073
C  -56.2098   -0.4273    0.0151
C  -57.4588    0.4563    0.0082
C  -58.7083   -0.4266    0.0160
C  -59.9573    0.4571    0.0090
C  -61.2068   -0.4259    0.0169
C  -62.4558    0.4578    0.0099
C  -63.7053   -0.4251    0.0178
C  -64.9542    0.4586    0.0108
C  -66.2037   -0.4244    0.0186
C  -67.4527    0.4593    0.0117
C  -68.7022   -0.4236    0.0195
O   68.2860    0.2717    0.8220
H   67.5796    1.1462   -0.8105
H   66.2152   -1.1005   -0.9125
H   66.2158   -1.0856    0.8674
H   64.9672    1.0567    0.8499
H   64.9665    1.0418   -0.9300
H   63.7167   -1.0998   -0.9116
H   63.7173   -1.0848    0.8683
H   62.4687    1.0574    0.8508
H   62.4681    1.0425   -0.9291
H   61.2182   -1.0990   -0.9107
H   61.2188   -1.0841    0.8692
H   59.9702    1.0582    0.8517
H   59.9696    1.0432   -0.9282
H   58.7197   -1.0983   -0.9098
H   58.7203   -1.0834    0.8701
H   57.4717    1.0589    0.8525
H   57.4711    1.0440   -0.9274
H   56.2212   -1.0975   -0.9090
H   56.2219   -1.0826    0.8709
H   54.9733    1.0596    0.8534
H   54.9726    1.0447   -0.9265
H   53.7228   -1.0968   -0.9081
H   53.7234   -1.0819    0.8718
H   52.4748    1.0604    0.8543
H   52.4742    1.0455   -0.9256
H   51.2243   -1.0961   -0.9072
H   51.2249   -1.0811    0.8727
H   49.9763    1.0611    0.8552
H   49.9757    1.0462   -0.9247
H   48.7258   -1.0953   -0.9063
H   48.7264   -1.0804    0.8736
H   47.4778    1.0619    0.8561
H   47.4772    1.0470   -0.9238
H   46.2273   -1.0946   -0.9055
H   46.2280   -1.0796    0.8744
H   44.9793    1.0626    0.8569
H   44.9787    1.0477   -0.9230
H   43.7288   -1.0938   -0.9046
H   43.7295   -1.0789    0.8753
H   42.4809    1.0634    0.8578
H   42.4802    1.0484   -0.9221
H   41.2304   -1.0931   -0.9037
H   41.2310   -1.0782    0.8762
H   39.9824    1.0641    0.8587
H   39.9818    1.0492   -0.9212
H   38.7319   -1.0923   -0.9028
H   38.7325   -1.0774    0.8771
H   37.4839    1.0648    0.8596
H   37.4833    1.0499   -0.9203
H   36.2334   -1.0916   -0.9019
H   36.2340   -1.0767    0.8780
H   34.9854    1.0656    0.8604
H   34.9848    1.0507   -0.9195
H   33.7349   -1.0909   -0.9011
H   33.7356   -1.0759    0.8788
H   32.4869    1.0663    0.8613
H   32.4863    1.0514   -0.9186
H   31.2364   -1.0901   -0.9002
H   31.2371   -1.0752    0.8797
H   29.9885    1.0671    0.8622
H   29.9878    1.0522   -0.9177
H   28.7380   -1.0894   -0.8993
H   28.7386   -1.0744    0.8806
H   27.4900    1.0678    0.8631
H   27.4894    1.0529   -0.9168
H   26.2395   -1.0886   -0.8984
H   26.2401   -1.0737    0.8815
H   24.9915    1.0686    0.8639
H   24.9909    1.0536   -0.9160
H   23.7410   -1.0879   -0.8976
H   23.7416   -1.0730    0.8823
H   22.4930    1.0693    0.8648
H   22.4924    1.0544   -0.9151
H   21.2425   -1.0871   -0.8967
H   21.2432   -1.0722    0.8832
H   19.9945    1.0701    0.8657
H   19.9939    1.0551   -0.9142
H   18.7441   -1.0864   -0.8958
H   18.7447   -1.0715    0.8841
H   17.4961    1.0708    0.8666
H   17.4954    1.0559   -0.9133
H   16.2456   -1.0857   -0.8949
H   16.2462   -1.0707    0.8850
H   14.9976    1.0715    0.8674
H   14.9970    1.0566   -0.9125
H   13.7471   -1.0849   -0.8941
H   13.7477   -1.0700    0.8858
H   12.4991    1.0723    0.8683
H   12.4985    1.0574   -0.9116
H   11.2486   -1.0842   -0.8932
H   11.2492   -1.0692    0.8867
H   10.0006    1.0730    0.8692
H   10.0000    1.0581   -0.9107
H    8.7501   -1.0834   -0.8923
H    8.7508   -1.0685    0.8876
H    7.5022    1.0738    0.8701
H    7.5015    1.0588   -0.9098
H    6.2517   -1.0827   -0.8914
H    6.2523   -1.0678    0.8885
H    5.0037    1.0745    0.8709
H    5.0030    1.0596   -0.9090
H    3.7532   -1.0819   -0.8906
H    3.7538   -1.0670    0.8893
H    2.5052    1.0753    0.8718
H    2.5046    1.0603   -0.9081
H    1.2547   -1.0812   -0.8897
H    1.2553   -1.0663    0.8902
H    0.0067    1.0760    0.8727
H    0.0061    1.0611   -0.9072
H   -1.2438   -1.0805   -0.8888
H   -1.2432   -1.0655    0.8911
H   -2.4918    1.0767    0.8736
H   -2.4924    1.0618   -0.9063
H   -3.7423   -1.0797   -0.8879
H   -3.7416   -1.0648    0.8920
H   -4.9902    1.0775    0.8744
H   -4.9909    1.0626   -0.9055
H   -6.2407   -1.0790   -0.8871
H   -6.2401   -1.0640    0.8928
H   -7.4887    1.0782    0.8753
H   -7.4894    1.0633   -0.9046
H   -8.7392   -1.0782   -0.8862
H   -8.7386   -1.0633    0.8937
H   -9.9872    1.0790    0.8762
H   -9.9878    1.0640   -0.9037
H  -11.2377   -1.0775   -0.8853
H  -11.2371   -1.0626    0.8946
H  -12.4857    1.0797    0.8771
H  -12.4863    1.0648   -0.9028
H  -13.7362   -1.0767   -0.8844
H  -13.7356   -1.0618    0.8955
H  -14.9842    1.0805    0.8779
H  -14.9848    1.0655   -0.9020
H  -16.2347   -1.0760   -0.8836
H  -16.2340   -1.0611    0.8963
H  -17.4826    1.0812    0.8788
H  -17.4833    1.0663   -0.9011
H  -18.7331   -1.0753   -0.8827
H  -18.7325   -1.0603    0.8972
H  -19.9811    1.0819    0.8797
H  -19.9817    1.0670   -0.9002
H  -21.2316   -1.0745   -0.8818
H  -21.2310   -1.0596    0.8981
H  -22.4796    1.0827    0.8806
H  -22.4802    1.0678   -0.8993
H  -23.7301   -1.0738   -0.8809
H  -23.7295   -1.0588    0.8990
H  -24.9781    1.0834    0.8814
H  -24.9787    1.0685   -0.8985
H  -26.2286   -1.0730   -0.8800
H  -26.2279   -1.0581    0.8999
H  -27.4766    1.0842    0.8823
H  -27.4772    1.0692   -0.8976
H  -28.7271   -1.0723   -0.8792
H  -28.7264   -1.0573    0.9007
H  -29.9750    1.0849    0.8832
H  -29.9757    1.0700   -0.8967
H  -31.2255   -1.0715   -0.8783
H  -31.2249   -1.0566    0.9016
H  -32.4735    1.0857    0.8841
H  -32.4741    1.0707   -0.8958
H  -33.7240   -1.0708   -0.8774
H  -33.7234   -1.0559    0.9025
H  -34.9720    1.0864    0.8849
H  -34.9726    1.0715   -0.8950
H  -36.2225   -1.0701   -0.8765
H  -36.2219   -1.0551    0.9034
H  -37.4705    1.0871    0.8858
H  -37.4711    1.0722   -0.8941
H  -38.7210   -1.0693   -0.8757
H  -38.7203   -1.0544    0.9042
H  -39.9690    1.0879    0.8867
H  -39.9696    1.0730   -0.8932
H  -41.2195   -1.0686   -0.8748
H  -41.2188   -1.0536    0.9051
H  -42.4674    1.0886    0.8876
H  -42.4681    1.0737   -0.8923
H  -43.7179   -1.0678   -0.8739
H  -43.7173   -1.0529    0.9060
H  -44.9659    1.0894    0.8885
H  -44.9665    1.0744   -0.8914
H  -46.2164   -1.0671   -0.8730
H  -46.2158   -1.0521    0.9069
H  -47.4644    1.0901    0.8893
H  -47.4650    1.0752   -0.8906
H  -48.7149   -1.0663   -0.8722
H  -48.7143   -1.0514    0.9077
H  -49.9629    1.0909    0.8902
H  -49.9635    1.0759   -0.8897
H  -51.2134   -1.0656   -0.8713
H  -51.2127   -1.0507    0.9086
H  -52.4613    1.0916    0.8911
H  -52.4620    1.0767   -0.8888
H  -53.7118   -1.0648   -0.8704
H  -53.7112   -1.0499    0.9095
H  -54.9598    1.0923    0.8920
H  -54.9605    1.0774   -0.8879
H  -56.2103   -1.0641   -0.8695
H  -56.2097   -1.0492    0.9104
H  -57.4583    1.0931    0.8928
H  -57.4589    1.0782   -0.8871
H  -58.7088   -1.0634   -0.8687
H  -58.7082   -1.0484    0.9112
H  -59.9568    1.0938    0.8937
H  -59.9574    1.0789   -0.8862
H  -61.2073   -1.0626   -0.8678
H  -61.2067   -1.0477    0.9121
H  -62.4553    1.0946    0.8946
H  -62.4559    1.0796   -0.8853
H  -63.7058   -1.0619   -0.8669
H  -63.7051   -1.0469    0.9130
H  -64.9537    1.0953    0.8955
H  -64.9544    1.0804   -0.8844
H  -66.2042   -1.0611   -0.8660
H  -66.2036   -1.0462    0.9139
H  -67.4522    1.0961    0.8963
H  -67.4529    1.0811   -0.8836
H  -69.5920    0.2059    0.0145
H  -68.7027   -1.0604   -0.8652
H  -68.7021   -1.0455    0.9147
