37
C12H24O
C    6.2686    0.2752   -0.2243
C    5.0212   -0.5686   -0.1677
C    3.7904    0.3402   -0.1691
C    2.5239   -0.5164   -0.1116
C    1.2931    0.3924   -0.1130
C    0.0266   -0.4642   -0.0556
C   -1.2042    0.4445   -0.0570
C   -2.4707   -0.4120    0.0005
C   -3.7016    0.4967   -0.0009
C   -4.9680   -0.3599    0.0565
C   -6.1989    0.5489    0.0551
C   -7.4653   -0.3077    0.1126
O    7.1245    0.1447    0.6176
H    6.3991    0.9933   -1.0202
H    4.9880   -1.2266   -1.0360
H    5.0291   -1.1682    0.7426
H    3.8236    0.9983    0.6992
H    3.7825    0.9398   -1.0793
H    2.4907   -1.1745   -0.9799
H    2.5318   -1.1160    0.7986
H    1.3263    1.0504    0.7553
H    1.2852    0.9920   -1.0233
H   -0.0066   -1.1223   -0.9239
H    0.0345   -1.0638    0.8547
H   -1.1710    1.1026    0.8113
H   -1.2121    1.0441   -0.9672
H   -2.5039   -1.0701   -0.8678
H   -2.4628   -1.0116    0.9107
H   -3.6683    1.1548    0.8674
H   -3.7095    1.0963   -0.9112
H   -5.0012   -1.0180   -0.8118
H   -4.9601   -0.9595    0.9668
H   -6.1656    1.2070    0.9234
H   -6.2068    1.1485   -0.8551
H   -7.4985   -0.9658   -0.7557
H   -7.4574   -0.9073    1.0228
H   -8.3422    0.3397    0.1116
