337
C112H224O
C   68.6955    0.4063   -0.0349
C   67.4648   -0.4634   -0.0273
C   66.2158    0.4203   -0.0342
C   64.9663   -0.4627   -0.0265
C   63.7174    0.4210   -0.0333
C   62.4679   -0.4620   -0.0256
C   61.2189    0.4217   -0.0325
C   59.9694   -0.4612   -0.0248
C   58.7204    0.4224   -0.0316
C   57.4709   -0.4605   -0.0239
C   56.2219    0.4232   -0.0308
C   54.9724   -0.4598   -0.0231
C   53.7234    0.4239   -0.0300
C   52.4739   -0.4591   -0.0222
C   51.2250    0.4246   -0.0291
C   49.9755   -0.4584   -0.0214
C   48.7265    0.4253   -0.0283
C   47.4770   -0.4577   -0.0206
C   46.2280    0.4260   -0.0274
C   44.9785   -0.4569   -0.0197
C   43.7295    0.4267   -0.0266
C   42.4800   -0.4562   -0.0189
C   41.2310    0.4275   -0.0257
C   39.9816   -0.4555   -0.0180
C   38.7326    0.4282   -0.0249
C   37.4831   -0.4548   -0.0172
C   36.2341    0.4289   -0.0240
C   34.9846   -0.4541   -0.0163
C   33.7356    0.4296   -0.0232
C   32.4861   -0.4533   -0.0155
C   31.2371    0.4303   -0.0223
C   29.9876   -0.4526   -0.0146
C   28.7386    0.4310   -0.0215
C   27.4892   -0.4519   -0.0138
C   26.2402    0.4318   -0.0207
C   24.9907   -0.4512   -0.0129
C   23.7417    0.4325   -0.0198
C   22.4922   -0.4505   -0.0121
C   21.2432    0.4332   -0.0190
C   19.9937   -0.4498   -0.0113
C   18.7447    0.4339   -0.0181
C   17.4952   -0.4490   -0.0104
C   16.2463    0.4346   -0.0173
C   14.9968   -0.4483   -0.0096
C   13.7478    0.4353   -0.0164
C   12.4983   -0.4476   -0.0087
C   11.2493    0.4361   -0.0156
C    9.9998   -0.4469   -0.0079
C    8.7508    0.4368   -0.0147
C    7.5013   -0.4462   -0.0070
C    6.2523    0.4375   -0.0139
C    5.0028   -0.4455   -0.0062
C    3.7539    0.4382   -0.0130
C    2.5044   -0.4447   -0.0053
C    1.2554    0.4389   -0.0122
C    0.0059   -0.4440   -0.0045
C   -1.2431    0.4396   -0.0114
C   -2.4926   -0.4433   -0.0036
C   -3.7416    0.4404   -0.0105
C   -4.9911   -0.4426   -0.0028
C   -6.2401    0.4411   -0.0097
C   -7.4896   -0.4419   -0.0020
C   -8.7385    0.4418   -0.0088
C   -9.9880   -0.4412   -0.0011
C  -11.2370    0.4425   -0.0080
C  -12.4865   -0.4404   -0.0003
C  -13.7355    0.4432   -0.0071
C  -14.9850   -0.4397    0.0006
C  -16.2340    0.4439   -0.0063
C  -17.4835   -0.4390    0.0014
C  -18.7325    0.4447   -0.0054
C  -19.9819   -0.4383    0.0023
C  -21.2309    0.4454   -0.0046
C  -22.4804   -0.4376    0.0031
C  -23.7294    0.4461   -0.0037
C  -24.9789   -0.4369    0.0040
C  -26.2279    0.4468   -0.0029
C  -27.4774   -0.4361    0.0048
C  -28.7264    0.4475   -0.0021
C  -29.9759   -0.4354    0.0057
C  -31.2249    0.4483   -0.0012
C  -32.4743   -0.4347    0.0065
C  -33.7233    0.4490   -0.0004
C  -34.9728   -0.4340    0.0073
C  -36.2218    0.4497    0.0005
C  -37.4713   -0.4333    0.0082
C  -38.7203    0.4504    0.0013
C  -39.9698   -0.4326    0.0090
C  -41.2188    0.4511    0.0022
C  -42.4683   -0.4318    0.0099
C  -43.7173    0.4518    0.0030
C  -44.9667   -0.4311    0.0107
C  -46.2157    0.4526    0.0039
C  -47.4652   -0.4304    0.0116
C  -48.7142    0.4533    0.0047
C  -49.9637   -0.4297    0.0124
C  -51.2127    0.4540    0.0056
C  -52.4622   -0.4290    0.0133
C  -53.7112    0.4547    0.0064
C  -54.9607   -0.4283    0.0141
C  -56.2096    0.4554    0.0072
C  -57.4591   -0.4275    0.0150
C  -58.7081    0.4561    0.0081
C  -59.9576   -0.4268    0.0158
C  -61.2066    0.4569    0.0089
C  -62.4561   -0.4261    0.0166
C  -63.7051    0.4576    0.0098
C  -64.9546   -0.4254    0.0175
C  -66.2036    0.4583    0.0106
C  -67.4531   -0.4247    0.0183
C  -68.7020    0.4590    0.0115
C  -69.9515   -0.4239    0.0192
O   69.5351    0.2719    0.8226
H   68.8288    1.1467   -0.8098
H   67.4643   -1.1000   -0.9121
H   67.4650   -1.0853    0.8678
H   66.2163    1.0569    0.8506
H   66.2157    1.0422   -0.9293
H   64.9659   -1.0993   -0.9112
H   64.9665   -1.0846    0.8687
H   63.7178    1.0576    0.8514
H   63.7172    1.0430   -0.9285
H   62.4674   -1.0986   -0.9104
H   62.4680   -1.0839    0.8695
H   61.2194    1.0583    0.8523
H   61.2188    1.0437   -0.9276
H   59.9689   -1.0979   -0.9095
H   59.9695   -1.0832    0.8704
H   58.7209    1.0591    0.8531
H   58.7203    1.0444   -0.9268
H   57.4704   -1.0971   -0.9087
H   57.4710   -1.0825    0.8712
H   56.2224    1.0598    0.8540
H   56.2218    1.0451   -0.9259
H   54.9719   -1.0964   -0.9079
H   54.9726   -1.0818    0.8720
H   53.7239    1.0605    0.8548
H   53.7233    1.0458   -0.9251
H   52.4735   -1.0957   -0.9070
H   52.4741   -1.0810    0.8729
H   51.2254    1.0612    0.8557
H   51.2248    1.0465   -0.9242
H   49.9750   -1.0950   -0.9062
H   49.9756   -1.0803    0.8737
H   48.7270    1.0619    0.8565
H   48.7264    1.0473   -0.9234
H   47.4765   -1.0943   -0.9053
H   47.4771   -1.0796    0.8746
H   46.2285    1.0626    0.8573
H   46.2279    1.0480   -0.9226
H   44.9780   -1.0936   -0.9045
H   44.9786   -1.0789    0.8754
H   43.7300    1.0634    0.8582
H   43.7294    1.0487   -0.9217
H   42.4795   -1.0928   -0.9036
H   42.4802   -1.0782    0.8763
H   41.2315    1.0641    0.8590
H   41.2309    1.0494   -0.9209
H   39.9811   -1.0921   -0.9028
H   39.9817   -1.0775    0.8771
H   38.7330    1.0648    0.8599
H   38.7324    1.0501   -0.9200
H   37.4826   -1.0914   -0.9019
H   37.4832   -1.0767    0.8780
H   36.2346    1.0655    0.8607
H   36.2340    1.0508   -0.9192
H   34.9841   -1.0907   -0.9011
H   34.9847   -1.0760    0.8788
H   33.7361    1.0662    0.8616
H   33.7355    1.0516   -0.9183
H   32.4856   -1.0900   -0.9002
H   32.4862   -1.0753    0.8797
H   31.2376    1.0670    0.8624
H   31.2370    1.0523   -0.9175
H   29.9872   -1.0893   -0.8994
H   29.9878   -1.0746    0.8805
H   28.7391    1.0677    0.8633
H   28.7385    1.0530   -0.9166
H   27.4887   -1.0885   -0.8986
H   27.4893   -1.0739    0.8813
H   26.2407    1.0684    0.8641
H   26.2400    1.0537   -0.9158
H   24.9902   -1.0878   -0.8977
H   24.9908   -1.0732    0.8822
H   23.7422    1.0691    0.8650
H   23.7416    1.0544   -0.9149
H   22.4917   -1.0871   -0.8969
H   22.4923   -1.0724    0.8830
H   21.2437    1.0698    0.8658
H   21.2431    1.0551   -0.9141
H   19.9932   -1.0864   -0.8960
H   19.9938   -1.0717    0.8839
H   18.7452    1.0705    0.8666
H   18.7446    1.0559   -0.9133
H   17.4948   -1.0857   -0.8952
H   17.4954   -1.0710    0.8847
H   16.2467    1.0713    0.8675
H   16.2461    1.0566   -0.9124
H   14.9963   -1.0850   -0.8943
H   14.9969   -1.0703    0.8856
H   13.7483    1.0720    0.8683
H   13.7476    1.0573   -0.9116
H   12.4978   -1.0842   -0.8935
H   12.4984   -1.0696    0.8864
H   11.2498    1.0727    0.8692
H   11.2492    1.0580   -0.9107
H    9.9993   -1.0835   -0.8926
H    9.9999   -1.0688    0.8873
H    8.7513    1.0734    0.8700
H    8.7507    1.0587   -0.9099
H    7.5008   -1.0828   -0.8918
H    7.5014   -1.0681    0.8881
H    6.2528    1.0741    0.8709
H    6.2522    1.0594   -0.9090
H    5.0024   -1.0821   -0.8909
H    5.0030   -1.0674    0.8890
H    3.7543    1.0748    0.8717
H    3.7537    1.0602   -0.9082
H    2.5039   -1.0814   -0.8901
H    2.5045   -1.0667    0.8898
H    1.2559    1.0756    0.8726
H    1.2553    1.0609   -0.9073
H    0.0054   -1.0807   -0.8893
H    0.0060   -1.0660    0.8907
H   -1.2426    1.0763    0.8734
H   -1.2432    1.0616   -0.9065
H   -2.4931   -1.0799   -0.8884
H   -2.4925   -1.0653    0.8915
H   -3.7411    1.0770    0.8743
H   -3.7417    1.0623   -0.9056
H   -4.9916   -1.0792   -0.8876
H   -4.9909   -1.0645    0.8923
H   -6.2396    1.0777    0.8751
H   -6.2402    1.0630   -0.9048
H   -7.4900   -1.0785   -0.8867
H   -7.4894   -1.0638    0.8932
H   -8.7381    1.0784    0.8759
H   -8.7387    1.0637   -0.9040
H   -9.9885   -1.0778   -0.8859
H   -9.9879   -1.0631    0.8940
H  -11.2365    1.0791    0.8768
H  -11.2371    1.0645   -0.9031
H  -12.4870   -1.0771   -0.8850
H  -12.4864   -1.0624    0.8949
H  -13.7350    1.0799    0.8776
H  -13.7356    1.0652   -0.9023
H  -14.9855   -1.0764   -0.8842
H  -14.9849   -1.0617    0.8957
H  -16.2335    1.0806    0.8785
H  -16.2341    1.0659   -0.9014
H  -17.4839   -1.0756   -0.8833
H  -17.4833   -1.0610    0.8966
H  -18.7320    1.0813    0.8793
H  -18.7326    1.0666   -0.9006
H  -19.9824   -1.0749   -0.8825
H  -19.9818   -1.0602    0.8974
H  -21.2305    1.0820    0.8802
H  -21.2311    1.0673   -0.8997
H  -22.4809   -1.0742   -0.8816
H  -22.4803   -1.0595    0.8983
H  -23.7289    1.0827    0.8810
H  -23.7295    1.0681   -0.8989
H  -24.9794   -1.0735   -0.8808
H  -24.9788   -1.0588    0.8991
H  -26.2274    1.0834    0.8819
H  -26.2280    1.0688   -0.8980
H  -27.4779   -1.0728   -0.8799
H  -27.4773   -1.0581    0.9000
H  -28.7259    1.0842    0.8827
H  -28.7265    1.0695   -0.8972
H  -29.9763   -1.0721   -0.8791
H  -29.9757   -1.0574    0.9008
H  -31.2244    1.0849    0.8836
H  -31.2250    1.0702   -0.8963
H  -32.4748   -1.0713   -0.8783
H  -32.4742   -1.0567    0.9016
H  -33.7229    1.0856    0.8844
H  -33.7235    1.0709   -0.8955
H  -34.9733   -1.0706   -0.8774
H  -34.9727   -1.0559    0.9025
H  -36.2213    1.0863    0.8852
H  -36.2219    1.0716   -0.8947
H  -37.4718   -1.0699   -0.8766
H  -37.4712   -1.0552    0.9033
H  -38.7198    1.0870    0.8861
H  -38.7204    1.0724   -0.8938
H  -39.9703   -1.0692   -0.8757
H  -39.9697   -1.0545    0.9042
H  -41.2183    1.0878    0.8869
H  -41.2189    1.0731   -0.8930
H  -42.4687   -1.0685   -0.8749
H  -42.4681   -1.0538    0.9050
H  -43.7168    1.0885    0.8878
H  -43.7174    1.0738   -0.8921
H  -44.9672   -1.0678   -0.8740
H  -44.9666   -1.0531    0.9059
H  -46.2152    1.0892    0.8886
H  -46.2159    1.0745   -0.8913
H  -47.4657   -1.0670   -0.8732
H  -47.4651   -1.0524    0.9067
H  -48.7137    1.0899    0.8895
H  -48.7143    1.0752   -0.8904
H  -49.9642   -1.0663   -0.8723
H  -49.9636   -1.0516    0.9076
H  -51.2122    1.0906    0.8903
H  -51.2128    1.0759   -0.8896
H  -52.4627   -1.0656   -0.8715
H  -52.4621   -1.0509    0.9084
H  -53.7107    1.0913    0.8912
H  -53.7113    1.0767   -0.8887
H  -54.9611   -1.0649   -0.8706
H  -54.9605   -1.0502    0.9093
H  -56.2092    1.0921    0.8920
H  -56.2098    1.0774   -0.8879
H  -57.4596   -1.0642   -0.8698
H  -57.4590   -1.0495    0.9101
H  -58.7076    1.0928    0.8929
H  -58.7082    1.0781   -0.8871
H  -59.9581   -1.0634   -0.8690
H  -59.9575   -1.0488    0.9109
H  -61.2061    1.0935    0.8937
H  -61.2067    1.0788   -0.8862
H  -62.4566   -1.0627   -0.8681
H  -62.4560   -1.0480    0.9118
H  -63.7046    1.0942    0.8945
H  -63.7052    1.0795   -0.8854
H  -64.9551   -1.0620   -0.8673
H  -64.9545   -1.0473    0.9126
H  -66.2031    1.0949    0.8954
H  -66.2037    1.0802   -0.8845
H  -67.4535   -1.0613   -0.8664
H  -67.4529   -1.0466    0.9135
H  -68.7016    1.0956    0.8962
H  -68.7022    1.0810   -0.8837
H  -69.9520   -1.0606   -0.8656
H  -69.9514   -1.0459    0.9143
H  -70.8413    0.2056    0.0143
