157
C52H104O
C   31.2234    0.3826   -0.0711
C   29.9918   -0.4858   -0.0550
C   28.7437    0.3991   -0.0676
C   27.4933   -0.4825   -0.0513
C   26.2452    0.4023   -0.0638
C   24.9948   -0.4793   -0.0475
C   23.7467    0.4056   -0.0601
C   22.4964   -0.4760   -0.0438
C   21.2483    0.4088   -0.0563
C   19.9979   -0.4728   -0.0400
C   18.7498    0.4121   -0.0526
C   17.4994   -0.4695   -0.0363
C   16.2513    0.4153   -0.0488
C   15.0009   -0.4663   -0.0325
C   13.7528    0.4186   -0.0451
C   12.5025   -0.4630   -0.0288
C   11.2544    0.4218   -0.0413
C   10.0040   -0.4598   -0.0251
C    8.7559    0.4251   -0.0376
C    7.5055   -0.4565   -0.0213
C    6.2574    0.4283   -0.0339
C    5.0070   -0.4533   -0.0176
C    3.7589    0.4315   -0.0301
C    2.5086   -0.4501   -0.0138
C    1.2605    0.4348   -0.0264
C    0.0101   -0.4468   -0.0101
C   -1.2380    0.4380   -0.0226
C   -2.4884   -0.4436   -0.0063
C   -3.7365    0.4413   -0.0189
C   -4.9869   -0.4403   -0.0026
C   -6.2350    0.4445   -0.0151
C   -7.4853   -0.4371    0.0012
C   -8.7334    0.4478   -0.0114
C   -9.9838   -0.4338    0.0049
C  -11.2319    0.4510   -0.0076
C  -12.4823   -0.4306    0.0087
C  -13.7304    0.4543   -0.0039
C  -14.9807   -0.4273    0.0124
C  -16.2289    0.4575   -0.0002
C  -17.4792   -0.4241    0.0161
C  -18.7273    0.4608    0.0036
C  -19.9777   -0.4208    0.0199
C  -21.2258    0.4640    0.0073
C  -22.4762   -0.4176    0.0236
C  -23.7243    0.4673    0.0111
C  -24.9746   -0.4143    0.0274
C  -26.2228    0.4705    0.0148
C  -27.4731   -0.4111    0.0311
C  -28.7212    0.4738    0.0186
C  -29.9716   -0.4078    0.0349
C  -31.2197    0.4770    0.0223
C  -32.4701   -0.4046    0.0386
O   32.0638    0.2543    0.7865
H   31.3564    1.1165   -0.8521
H   29.9896   -1.1295   -0.9346
H   29.9923   -1.1005    0.8451
H   28.7458    1.0428    0.8120
H   28.7431    1.0138   -0.9677
H   27.4912   -1.1263   -0.9309
H   27.4939   -1.0972    0.8489
H   26.2474    1.0461    0.8158
H   26.2447    1.0170   -0.9640
H   24.9927   -1.1230   -0.9271
H   24.9954   -1.0940    0.8526
H   23.7489    1.0493    0.8195
H   23.7462    1.0203   -0.9602
H   22.4942   -1.1198   -0.9234
H   22.4969   -1.0907    0.8564
H   21.2504    1.0526    0.8233
H   21.2477    1.0235   -0.9565
H   19.9957   -1.1165   -0.9196
H   19.9984   -1.0875    0.8601
H   18.7519    1.0558    0.8270
H   18.7492    1.0268   -0.9527
H   17.4973   -1.1133   -0.9159
H   17.5000   -1.0842    0.8638
H   16.2535    1.0591    0.8307
H   16.2508    1.0300   -0.9490
H   14.9988   -1.1100   -0.9121
H   15.0015   -1.0810    0.8676
H   13.7550    1.0623    0.8345
H   13.7523    1.0333   -0.9452
H   12.5003   -1.1068   -0.9084
H   12.5030   -1.0777    0.8713
H   11.2565    1.0656    0.8382
H   11.2538    1.0365   -0.9415
H   10.0018   -1.1036   -0.9046
H   10.0045   -1.0745    0.8751
H    8.7580    1.0688    0.8420
H    8.7553    1.0398   -0.9377
H    7.5034   -1.1003   -0.9009
H    7.5061   -1.0712    0.8788
H    6.2596    1.0721    0.8457
H    6.2569    1.0430   -0.9340
H    5.0049   -1.0971   -0.8971
H    5.0076   -1.0680    0.8826
H    3.7611    1.0753    0.8495
H    3.7584    1.0462   -0.9303
H    2.5064   -1.0938   -0.8934
H    2.5091   -1.0648    0.8863
H    1.2626    1.0786    0.8532
H    1.2599    1.0495   -0.9265
H    0.0079   -1.0906   -0.8897
H    0.0106   -1.0615    0.8901
H   -1.2359    1.0818    0.8570
H   -1.2386    1.0527   -0.9228
H   -2.4905   -1.0873   -0.8859
H   -2.4878   -1.0583    0.8938
H   -3.7343    1.0850    0.8607
H   -3.7370    1.0560   -0.9190
H   -4.9890   -1.0841   -0.8822
H   -4.9863   -1.0550    0.8976
H   -6.2328    1.0883    0.8645
H   -6.2355    1.0592   -0.9153
H   -7.4875   -1.0808   -0.8784
H   -7.4848   -1.0518    0.9013
H   -8.7313    1.0915    0.8682
H   -8.7340    1.0625   -0.9115
H   -9.9860   -1.0776   -0.8747
H   -9.9832   -1.0485    0.9050
H  -11.2298    1.0948    0.8719
H  -11.2325    1.0657   -0.9078
H  -12.4844   -1.0743   -0.8709
H  -12.4817   -1.0453    0.9088
H  -13.7282    1.0980    0.8757
H  -13.7309    1.0690   -0.9040
H  -14.9829   -1.0711   -0.8672
H  -14.9802   -1.0420    0.9125
H  -16.2267    1.1013    0.8794
H  -16.2294    1.0722   -0.9003
H  -17.4814   -1.0678   -0.8634
H  -17.4787   -1.0388    0.9163
H  -18.7252    1.1045    0.8832
H  -18.7279    1.0755   -0.8965
H  -19.9799   -1.0646   -0.8597
H  -19.9771   -1.0355    0.9200
H  -21.2237    1.1078    0.8869
H  -21.2264    1.0787   -0.8928
H  -22.4783   -1.0613   -0.8559
H  -22.4756   -1.0323    0.9238
H  -23.7221    1.1110    0.8907
H  -23.7248    1.0820   -0.8891
H  -24.9768   -1.0581   -0.8522
H  -24.9741   -1.0290    0.9275
H  -26.2206    1.1143    0.8944
H  -26.2233    1.0852   -0.8853
H  -27.4753   -1.0548   -0.8485
H  -27.4726   -1.0258    0.9313
H  -28.7191    1.1175    0.8982
H  -28.7218    1.0885   -0.8816
H  -29.9738   -1.0516   -0.8447
H  -29.9710   -1.0225    0.9350
H  -31.2176    1.1208    0.9019
H  -31.2203    1.0917   -0.8778
H  -32.4722   -1.0484   -0.8410
H  -32.4695   -1.0193    0.9388
H  -33.3592    0.2258    0.0297
