217
C72H144O
C   43.7131    0.3946   -0.0528
C   42.4821   -0.4745   -0.0411
C   41.2335    0.4096   -0.0510
C   39.9836   -0.4728   -0.0391
C   38.7350    0.4113   -0.0490
C   37.4851   -0.4711   -0.0371
C   36.2365    0.4131   -0.0470
C   34.9867   -0.4694   -0.0351
C   33.7380    0.4148   -0.0450
C   32.4882   -0.4677   -0.0331
C   31.2395    0.4165   -0.0430
C   29.9897   -0.4659   -0.0311
C   28.7411    0.4182   -0.0410
C   27.4912   -0.4642   -0.0291
C   26.2426    0.4199   -0.0390
C   24.9928   -0.4625   -0.0271
C   23.7441    0.4216   -0.0370
C   22.4943   -0.4608   -0.0251
C   21.2456    0.4233   -0.0350
C   19.9958   -0.4591   -0.0231
C   18.7472    0.4251   -0.0330
C   17.4973   -0.4574   -0.0211
C   16.2487    0.4268   -0.0310
C   14.9988   -0.4556   -0.0191
C   13.7502    0.4285   -0.0290
C   12.5004   -0.4539   -0.0171
C   11.2517    0.4302   -0.0270
C   10.0019   -0.4522   -0.0151
C    8.7532    0.4319   -0.0250
C    7.5034   -0.4505   -0.0131
C    6.2548    0.4336   -0.0230
C    5.0049   -0.4488   -0.0111
C    3.7563    0.4353   -0.0210
C    2.5064   -0.4471   -0.0091
C    1.2578    0.4371   -0.0190
C    0.0080   -0.4454   -0.0071
C   -1.2407    0.4388   -0.0170
C   -2.4905   -0.4436   -0.0051
C   -3.7391    0.4405   -0.0150
C   -4.9890   -0.4419   -0.0031
C   -6.2376    0.4422   -0.0130
C   -7.4875   -0.4402   -0.0011
C   -8.7361    0.4439   -0.0110
C   -9.9859   -0.4385    0.0009
C  -11.2346    0.4456   -0.0090
C  -12.4844   -0.4368    0.0029
C  -13.7331    0.4474   -0.0070
C  -14.9829   -0.4351    0.0049
C  -16.2315    0.4491   -0.0050
C  -17.4814   -0.4334    0.0069
C  -18.7300    0.4508   -0.0030
C  -19.9799   -0.4316    0.0089
C  -21.2285    0.4525   -0.0010
C  -22.4783   -0.4299    0.0109
C  -23.7270    0.4542    0.0010
C  -24.9768   -0.4282    0.0129
C  -26.2255    0.4559    0.0030
C  -27.4753   -0.4265    0.0149
C  -28.7239    0.4576    0.0050
C  -29.9738   -0.4248    0.0169
C  -31.2224    0.4594    0.0070
C  -32.4722   -0.4231    0.0189
C  -33.7209    0.4611    0.0090
C  -34.9707   -0.4213    0.0209
C  -36.2194    0.4628    0.0110
C  -37.4692   -0.4196    0.0229
C  -38.7178    0.4645    0.0130
C  -39.9677   -0.4179    0.0249
C  -41.2163    0.4662    0.0150
C  -42.4662   -0.4162    0.0269
C  -43.7148    0.4679    0.0170
C  -44.9646   -0.4145    0.0289
O   44.5531    0.2635    0.8048
H   43.8463    1.1318   -0.8308
H   42.4810   -1.1147   -0.9233
H   42.4824   -1.0928    0.8565
H   41.2346    1.0499    0.8311
H   41.2332    1.0279   -0.9487
H   39.9825   -1.1130   -0.9213
H   39.9839   -1.0911    0.8585
H   38.7361    1.0516    0.8331
H   38.7347    1.0296   -0.9467
H   37.4840   -1.1113   -0.9193
H   37.4854   -1.0894    0.8605
H   36.2376    1.0533    0.8351
H   36.2362    1.0313   -0.9447
H   34.9855   -1.1096   -0.9173
H   34.9870   -1.0877    0.8625
H   33.7392    1.0550    0.8371
H   33.7377    1.0331   -0.9427
H   32.4870   -1.1079   -0.9153
H   32.4885   -1.0859    0.8645
H   31.2407    1.0567    0.8391
H   31.2393    1.0348   -0.9407
H   29.9886   -1.1062   -0.9133
H   29.9900   -1.0842    0.8665
H   28.7422    1.0584    0.8411
H   28.7408    1.0365   -0.9387
H   27.4901   -1.1045   -0.9113
H   27.4915   -1.0825    0.8685
H   26.2437    1.0601    0.8431
H   26.2423    1.0382   -0.9367
H   24.9916   -1.1027   -0.9093
H   24.9930   -1.0808    0.8705
H   23.7453    1.0619    0.8451
H   23.7438    1.0399   -0.9347
H   22.4931   -1.1010   -0.9073
H   22.4946   -1.0791    0.8725
H   21.2468    1.0636    0.8471
H   21.2453    1.0416   -0.9327
H   19.9946   -1.0993   -0.9053
H   19.9961   -1.0774    0.8745
H   18.7483    1.0653    0.8491
H   18.7469    1.0433   -0.9307
H   17.4962   -1.0976   -0.9033
H   17.4976   -1.0757    0.8765
H   16.2498    1.0670    0.8511
H   16.2484    1.0451   -0.9287
H   14.9977   -1.0959   -0.9013
H   14.9991   -1.0739    0.8785
H   13.7513    1.0687    0.8531
H   13.7499    1.0468   -0.9267
H   12.4992   -1.0942   -0.8993
H   12.5007   -1.0722    0.8805
H   11.2529    1.0704    0.8551
H   11.2514    1.0485   -0.9247
H   10.0007   -1.0925   -0.8973
H   10.0022   -1.0705    0.8825
H    8.7544    1.0722    0.8571
H    8.7529    1.0502   -0.9227
H    7.5023   -1.0907   -0.8953
H    7.5037   -1.0688    0.8845
H    6.2559    1.0739    0.8591
H    6.2545    1.0519   -0.9207
H    5.0038   -1.0890   -0.8933
H    5.0052   -1.0671    0.8865
H    3.7574    1.0756    0.8611
H    3.7560    1.0536   -0.9187
H    2.5053   -1.0873   -0.8913
H    2.5067   -1.0654    0.8885
H    1.2590    1.0773    0.8631
H    1.2575    1.0554   -0.9167
H    0.0068   -1.0856   -0.8893
H    0.0083   -1.0637    0.8905
H   -1.2395    1.0790    0.8651
H   -1.2410    1.0571   -0.9147
H   -2.4917   -1.0839   -0.8873
H   -2.4902   -1.0619    0.8925
H   -3.7380    1.0807    0.8671
H   -3.7394    1.0588   -0.9127
H   -4.9901   -1.0822   -0.8853
H   -4.9887   -1.0602    0.8945
H   -6.2365    1.0824    0.8691
H   -6.2379    1.0605   -0.9107
H   -7.4886   -1.0804   -0.8833
H   -7.4872   -1.0585    0.8965
H   -8.7350    1.0842    0.8711
H   -8.7364    1.0622   -0.9087
H   -9.9871   -1.0787   -0.8813
H   -9.9856   -1.0568    0.8986
H  -11.2334    1.0859    0.8731
H  -11.2349    1.0639   -0.9067
H  -12.4856   -1.0770   -0.8793
H  -12.4841   -1.0551    0.9006
H  -13.7319    1.0876    0.8751
H  -13.7334    1.0656   -0.9047
H  -14.9840   -1.0753   -0.8773
H  -14.9826   -1.0534    0.9026
H  -16.2304    1.0893    0.8771
H  -16.2318    1.0674   -0.9027
H  -17.4825   -1.0736   -0.8753
H  -17.4811   -1.0516    0.9046
H  -18.7289    1.0910    0.8791
H  -18.7303    1.0691   -0.9007
H  -19.9810   -1.0719   -0.8733
H  -19.9796   -1.0499    0.9066
H  -21.2274    1.0927    0.8811
H  -21.2288    1.0708   -0.8987
H  -22.4795   -1.0702   -0.8713
H  -22.4780   -1.0482    0.9086
H  -23.7258    1.0944    0.8831
H  -23.7273    1.0725   -0.8967
H  -24.9780   -1.0684   -0.8693
H  -24.9765   -1.0465    0.9106
H  -26.2243    1.0962    0.8851
H  -26.2257    1.0742   -0.8947
H  -27.4764   -1.0667   -0.8673
H  -27.4750   -1.0448    0.9126
H  -28.7228    1.0979    0.8871
H  -28.7242    1.0759   -0.8927
H  -29.9749   -1.0650   -0.8653
H  -29.9735   -1.0431    0.9146
H  -31.2213    1.0996    0.8891
H  -31.2227    1.0777   -0.8907
H  -32.4734   -1.0633   -0.8633
H  -32.4720   -1.0414    0.9166
H  -33.7197    1.1013    0.8911
H  -33.7212    1.0794   -0.8887
H  -34.9719   -1.0616   -0.8613
H  -34.9704   -1.0396    0.9186
H  -36.2182    1.1030    0.8931
H  -36.2197    1.0811   -0.8867
H  -37.4703   -1.0599   -0.8593
H  -37.4689   -1.0379    0.9206
H  -38.7167    1.1047    0.8951
H  -38.7181    1.0828   -0.8847
H  -39.9688   -1.0582   -0.8573
H  -39.9674   -1.0362    0.9226
H  -41.2152    1.1065    0.8971
H  -41.2166    1.0845   -0.8827
H  -42.4673   -1.0564   -0.8553
H  -42.4659   -1.0345    0.9246
H  -43.7137    1.1082    0.8991
H  -43.7151    1.0862   -0.8807
H  -44.9658   -1.0547   -0.8533
H  -44.9643   -1.0328    0.9266
H  -45.8542    0.2154    0.0218
