94
C31H62O
C   18.1118    0.3816   -0.1135
C   16.8804   -0.4866   -0.0837
C   15.6322    0.3979   -0.1039
C   14.3820   -0.4835   -0.0735
C   13.1337    0.4009   -0.0938
C   11.8835   -0.4805   -0.0634
C   10.6352    0.4040   -0.0837
C    9.3850   -0.4775   -0.0533
C    8.1368    0.4070   -0.0736
C    6.8866   -0.4745   -0.0432
C    5.6383    0.4100   -0.0635
C    4.3881   -0.4714   -0.0331
C    3.1399    0.4131   -0.0533
C    1.8897   -0.4684   -0.0230
C    0.6414    0.4161   -0.0432
C   -0.6088   -0.4654   -0.0129
C   -1.8570    0.4191   -0.0331
C   -3.1072   -0.4624   -0.0028
C   -4.3555    0.4221   -0.0230
C   -5.6057   -0.4593    0.0073
C   -6.8540    0.4252   -0.0129
C   -8.1042   -0.4563    0.0174
C   -9.3524    0.4282   -0.0028
C  -10.6026   -0.4533    0.0276
C  -11.8509    0.4312    0.0073
C  -13.1011   -0.4502    0.0377
C  -14.3493    0.4343    0.0174
C  -15.5995   -0.4472    0.0478
C  -16.8478    0.4373    0.0275
C  -18.0980   -0.4442    0.0579
C  -19.3462    0.4403    0.0376
O   18.9545    0.2640    0.7434
H   18.2428    1.1059   -0.9039
H   16.8761   -1.1411   -0.9552
H   16.8834   -1.0901    0.8240
H   15.6365    1.0525    0.7677
H   15.6292    1.0015   -1.0115
H   14.3776   -1.1381   -0.9451
H   14.3849   -1.0871    0.8341
H   13.1380    1.0555    0.7778
H   13.1308    1.0045   -1.0014
H   11.8792   -1.1351   -0.9350
H   11.8864   -1.0841    0.8442
H   10.6396    1.0585    0.7879
H   10.6323    1.0075   -0.9913
H    9.3807   -1.1320   -0.9249
H    9.3880   -1.0811    0.8543
H    8.1411    1.0615    0.7980
H    8.1338    1.0106   -0.9812
H    6.8823   -1.1290   -0.9148
H    6.8895   -1.0780    0.8644
H    5.6426    1.0646    0.8081
H    5.6354    1.0136   -0.9711
H    4.3838   -1.1260   -0.9047
H    4.3911   -1.0750    0.8745
H    3.1442    1.0676    0.8182
H    3.1369    1.0166   -0.9610
H    1.8854   -1.1229   -0.8946
H    1.8926   -1.0720    0.8846
H    0.6457    1.0706    0.8284
H    0.6385    1.0197   -0.9509
H   -0.6131   -1.1199   -0.8845
H   -0.6058   -1.0690    0.8947
H   -1.8527    1.0737    0.8385
H   -1.8600    1.0227   -0.9408
H   -3.1116   -1.1169   -0.8744
H   -3.1043   -1.0659    0.9049
H   -4.3512    1.0767    0.8486
H   -4.3584    1.0257   -0.9306
H   -5.6100   -1.1139   -0.8642
H   -5.6028   -1.0629    0.9150
H   -6.8496    1.0797    0.8587
H   -6.8569    1.0287   -0.9205
H   -8.1085   -1.1108   -0.8541
H   -8.1012   -1.0599    0.9251
H   -9.3481    1.0827    0.8688
H   -9.3554    1.0318   -0.9104
H  -10.6069   -1.1078   -0.8440
H  -10.5997   -1.0568    0.9352
H  -11.8466    1.0858    0.8789
H  -11.8538    1.0348   -0.9003
H  -13.1054   -1.1048   -0.8339
H  -13.0981   -1.0538    0.9453
H  -14.3450    1.0888    0.8890
H  -14.3523    1.0378   -0.8902
H  -15.6038   -1.1018   -0.8238
H  -15.5966   -1.0508    0.9554
H  -16.8435    1.0918    0.8991
H  -16.8507    1.0409   -0.8801
H  -18.1023   -1.0987   -0.8137
H  -18.0950   -1.0478    0.9655
H  -19.3419    1.0948    0.9092
H  -19.3492    1.0439   -0.8700
H  -20.2369   -0.1877    0.0593
