79
C26H52O
C   14.9927    0.3433   -0.1285
C   13.7580   -0.5204   -0.0978
C   12.5131    0.3688   -0.1151
C   11.2596   -0.5080   -0.0840
C   10.0147    0.3813   -0.1013
C    8.7612   -0.4955   -0.0701
C    7.5163    0.3937   -0.0874
C    6.2628   -0.4831   -0.0563
C    5.0179    0.4061   -0.0736
C    3.7644   -0.4707   -0.0425
C    2.5194    0.4185   -0.0598
C    1.2660   -0.4583   -0.0286
C    0.0210    0.4309   -0.0459
C   -1.2324   -0.4459   -0.0148
C   -2.4774    0.4433   -0.0321
C   -3.7308   -0.4335   -0.0009
C   -4.9758    0.4557   -0.0182
C   -6.2292   -0.4211    0.0129
C   -7.4742    0.4681   -0.0044
C   -8.7277   -0.4087    0.0268
C   -9.9726    0.4805    0.0095
C  -11.2261   -0.3963    0.0406
C  -12.4710    0.4929    0.0233
C  -13.7245   -0.3839    0.0545
C  -14.9694    0.5053    0.0372
C  -16.2229   -0.3715    0.0683
O   15.8361    0.2214    0.7271
H   15.1252    1.0680   -0.9181
H   13.7500   -1.1738   -0.9702
H   13.7601   -1.1251    0.8090
H   12.5212    1.0223    0.7573
H   12.5111    0.9735   -1.0220
H   11.2515   -1.1614   -0.9564
H   11.2617   -1.1126    0.8229
H   10.0228    1.0347    0.7711
H   10.0127    0.9860   -1.0082
H    8.7531   -1.1490   -0.9425
H    8.7632   -1.1002    0.8367
H    7.5243    1.0471    0.7849
H    7.5142    0.9984   -0.9943
H    6.2547   -1.1366   -0.9287
H    6.2648   -1.0878    0.8506
H    5.0259    1.0595    0.7988
H    5.0158    1.0108   -0.9805
H    3.7563   -1.1242   -0.9148
H    3.7664   -1.0754    0.8644
H    2.5275    1.0719    0.8126
H    2.5174    1.0232   -0.9666
H    1.2579   -1.1118   -0.9010
H    1.2680   -1.0630    0.8783
H    0.0291    1.0843    0.8265
H    0.0190    1.0356   -0.9528
H   -1.2405   -1.0993   -0.8872
H   -1.2304   -1.0506    0.8921
H   -2.4693    1.0967    0.8403
H   -2.4794    1.0480   -0.9389
H   -3.7389   -1.0869   -0.8733
H   -3.7288   -1.0382    0.9060
H   -4.9677    1.1091    0.8542
H   -4.9778    1.0604   -0.9251
H   -6.2373   -1.0745   -0.8595
H   -6.2272   -1.0258    0.9198
H   -7.4661    1.1216    0.8680
H   -7.4762    1.0728   -0.9113
H   -8.7357   -1.0621   -0.8456
H   -8.7256   -1.0134    0.9336
H   -9.9645    1.1340    0.8819
H   -9.9746    1.0852   -0.8974
H  -11.2341   -1.0497   -0.8318
H  -11.2240   -1.0010    0.9475
H  -12.4629    1.1464    0.8957
H  -12.4730    1.0976   -0.8836
H  -13.7326   -1.0373   -0.8179
H  -13.7225   -0.9886    0.9613
H  -14.9613    1.1588    0.9095
H  -14.9714    1.1100   -0.8697
H  -16.2310   -1.0249   -0.8041
H  -16.2209   -0.9762    0.9752
H  -17.1098    0.2620    0.0560
