349
C116H232O
C   71.1939    0.4070   -0.0338
C   69.9632   -0.4627   -0.0264
C   68.7142    0.4210   -0.0331
C   67.4647   -0.4620   -0.0256
C   66.2157    0.4216   -0.0323
C   64.9662   -0.4613   -0.0249
C   63.7172    0.4223   -0.0315
C   62.4677   -0.4607   -0.0241
C   61.2187    0.4230   -0.0307
C   59.9693   -0.4600   -0.0233
C   58.7202    0.4237   -0.0299
C   57.4708   -0.4593   -0.0225
C   56.2218    0.4243   -0.0291
C   54.9723   -0.4587   -0.0217
C   53.7233    0.4250   -0.0283
C   52.4738   -0.4580   -0.0209
C   51.2248    0.4257   -0.0276
C   49.9753   -0.4573   -0.0201
C   48.7263    0.4263   -0.0268
C   47.4769   -0.4567   -0.0193
C   46.2279    0.4270   -0.0260
C   44.9784   -0.4560   -0.0185
C   43.7294    0.4277   -0.0252
C   42.4799   -0.4553   -0.0177
C   41.2309    0.4283   -0.0244
C   39.9814   -0.4546   -0.0170
C   38.7324    0.4290   -0.0236
C   37.4829   -0.4540   -0.0162
C   36.2339    0.4297   -0.0228
C   34.9845   -0.4533   -0.0154
C   33.7355    0.4303   -0.0220
C   32.4860   -0.4526   -0.0146
C   31.2370    0.4310   -0.0212
C   29.9875   -0.4520   -0.0138
C   28.7385    0.4317   -0.0205
C   27.4890   -0.4513   -0.0130
C   26.2400    0.4323   -0.0197
C   24.9905   -0.4506   -0.0122
C   23.7415    0.4330   -0.0189
C   22.4921   -0.4500   -0.0114
C   21.2431    0.4337   -0.0181
C   19.9936   -0.4493   -0.0106
C   18.7446    0.4344   -0.0173
C   17.4951   -0.4486   -0.0099
C   16.2461    0.4350   -0.0165
C   14.9966   -0.4480   -0.0091
C   13.7476    0.4357   -0.0157
C   12.4981   -0.4473   -0.0083
C   11.2491    0.4364   -0.0149
C    9.9997   -0.4466   -0.0075
C    8.7507    0.4370   -0.0141
C    7.5012   -0.4460   -0.0067
C    6.2522    0.4377   -0.0134
C    5.0027   -0.4453   -0.0059
C    3.7537    0.4384   -0.0126
C    2.5042   -0.4446   -0.0051
C    1.2552    0.4390   -0.0118
C    0.0058   -0.4439   -0.0043
C   -1.2433    0.4397   -0.0110
C   -2.4927   -0.4433   -0.0035
C   -3.7417    0.4404   -0.0102
C   -4.9912   -0.4426   -0.0028
C   -6.2402    0.4410   -0.0094
C   -7.4897   -0.4419   -0.0020
C   -8.7387    0.4417   -0.0086
C   -9.9882   -0.4413   -0.0012
C  -11.2372    0.4424   -0.0078
C  -12.4866   -0.4406   -0.0004
C  -13.7356    0.4431   -0.0070
C  -14.9851   -0.4399    0.0004
C  -16.2341    0.4437   -0.0063
C  -17.4836   -0.4393    0.0012
C  -18.7326    0.4444   -0.0055
C  -19.9821   -0.4386    0.0020
C  -21.2311    0.4451   -0.0047
C  -22.4806   -0.4379    0.0028
C  -23.7296    0.4457   -0.0039
C  -24.9790   -0.4373    0.0036
C  -26.2280    0.4464   -0.0031
C  -27.4775   -0.4366    0.0044
C  -28.7265    0.4471   -0.0023
C  -29.9760   -0.4359    0.0051
C  -31.2250    0.4477   -0.0015
C  -32.4745   -0.4352    0.0059
C  -33.7235    0.4484   -0.0007
C  -34.9730   -0.4346    0.0067
C  -36.2220    0.4491    0.0001
C  -37.4714   -0.4339    0.0075
C  -38.7204    0.4497    0.0009
C  -39.9699   -0.4332    0.0083
C  -41.2189    0.4504    0.0016
C  -42.4684   -0.4326    0.0091
C  -43.7174    0.4511    0.0024
C  -44.9669   -0.4319    0.0099
C  -46.2159    0.4517    0.0032
C  -47.4654   -0.4312    0.0107
C  -48.7144    0.4524    0.0040
C  -49.9638   -0.4306    0.0115
C  -51.2128    0.4531    0.0048
C  -52.4623   -0.4299    0.0122
C  -53.7113    0.4538    0.0056
C  -54.9608   -0.4292    0.0130
C  -56.2098    0.4544    0.0064
C  -57.4593   -0.4286    0.0138
C  -58.7083    0.4551    0.0072
C  -59.9577   -0.4279    0.0146
C  -61.2068    0.4558    0.0080
C  -62.4562   -0.4272    0.0154
C  -63.7052    0.4564    0.0087
C  -64.9547   -0.4266    0.0162
C  -66.2037    0.4571    0.0095
C  -67.4532   -0.4259    0.0170
C  -68.7022    0.4578    0.0103
C  -69.9517   -0.4252    0.0178
C  -71.2007    0.4584    0.0111
C  -72.4501   -0.4245    0.0186
O   72.0334    0.2725    0.8238
H   71.3271    1.1476   -0.8085
H   69.9627   -1.0991   -0.9114
H   69.9633   -1.0849    0.8685
H   68.7146    1.0574    0.8518
H   68.7141    1.0432   -0.9281
H   67.4642   -1.0984   -0.9106
H   67.4648   -1.0842    0.8693
H   66.2161    1.0580    0.8526
H   66.2156    1.0438   -0.9273
H   64.9658   -1.0977   -0.9098
H   64.9663   -1.0835    0.8701
H   63.7177    1.0587    0.8534
H   63.7171    1.0445   -0.9265
H   62.4673   -1.0971   -0.9090
H   62.4678   -1.0829    0.8709
H   61.2192    1.0594    0.8542
H   61.2186    1.0452   -0.9257
H   59.9688   -1.0964   -0.9082
H   59.9694   -1.0822    0.8717
H   58.7207    1.0600    0.8550
H   58.7201    1.0458   -0.9249
H   57.4703   -1.0957   -0.9074
H   57.4709   -1.0815    0.8725
H   56.2222    1.0607    0.8558
H   56.2217    1.0465   -0.9241
H   54.9718   -1.0951   -0.9066
H   54.9724   -1.0809    0.8733
H   53.7237    1.0614    0.8566
H   53.7232    1.0472   -0.9233
H   52.4734   -1.0944   -0.9058
H   52.4739   -1.0802    0.8741
H   51.2253    1.0621    0.8574
H   51.2247    1.0478   -0.9225
H   49.9749   -1.0937   -0.9050
H   49.9755   -1.0795    0.8749
H   48.7268    1.0627    0.8582
H   48.7262    1.0485   -0.9217
H   47.4764   -1.0930   -0.9043
H   47.4770   -1.0788    0.8756
H   46.2283    1.0634    0.8590
H   46.2277    1.0492   -0.9210
H   44.9779   -1.0924   -0.9035
H   44.9785   -1.0782    0.8764
H   43.7298    1.0641    0.8597
H   43.7293    1.0499   -0.9202
H   42.4795   -1.0917   -0.9027
H   42.4800   -1.0775    0.8772
H   41.2313    1.0647    0.8605
H   41.2308    1.0505   -0.9194
H   39.9810   -1.0910   -0.9019
H   39.9815   -1.0768    0.8780
H   38.7329    1.0654    0.8613
H   38.7323    1.0512   -0.9186
H   37.4825   -1.0904   -0.9011
H   37.4831   -1.0762    0.8788
H   36.2344    1.0661    0.8621
H   36.2338    1.0519   -0.9178
H   34.9840   -1.0897   -0.9003
H   34.9846   -1.0755    0.8796
H   33.7359    1.0667    0.8629
H   33.7353    1.0525   -0.9170
H   32.4855   -1.0890   -0.8995
H   32.4861   -1.0748    0.8804
H   31.2374    1.0674    0.8637
H   31.2369    1.0532   -0.9162
H   29.9871   -1.0884   -0.8987
H   29.9876   -1.0742    0.8812
H   28.7389    1.0681    0.8645
H   28.7384    1.0539   -0.9154
H   27.4886   -1.0877   -0.8979
H   27.4891   -1.0735    0.8820
H   26.2405    1.0687    0.8653
H   26.2399    1.0545   -0.9146
H   24.9901   -1.0870   -0.8972
H   24.9907   -1.0728    0.8828
H   23.7420    1.0694    0.8661
H   23.7414    1.0552   -0.9139
H   22.4916   -1.0864   -0.8964
H   22.4922   -1.0722    0.8835
H   21.2435    1.0701    0.8668
H   21.2429    1.0559   -0.9131
H   19.9931   -1.0857   -0.8956
H   19.9937   -1.0715    0.8843
H   18.7450    1.0707    0.8676
H   18.7445    1.0565   -0.9123
H   17.4947   -1.0850   -0.8948
H   17.4952   -1.0708    0.8851
H   16.2466    1.0714    0.8684
H   16.2460    1.0572   -0.9115
H   14.9962   -1.0844   -0.8940
H   14.9967   -1.0701    0.8859
H   13.7481    1.0721    0.8692
H   13.7475    1.0579   -0.9107
H   12.4977   -1.0837   -0.8932
H   12.4983   -1.0695    0.8867
H   11.2496    1.0728    0.8700
H   11.2490    1.0586   -0.9099
H    9.9992   -1.0830   -0.8924
H    9.9998   -1.0688    0.8875
H    8.7511    1.0734    0.8708
H    8.7505    1.0592   -0.9091
H    7.5007   -1.0823   -0.8916
H    7.5013   -1.0681    0.8883
H    6.2526    1.0741    0.8716
H    6.2521    1.0599   -0.9083
H    5.0023   -1.0817   -0.8908
H    5.0028   -1.0675    0.8891
H    3.7542    1.0748    0.8724
H    3.7536    1.0606   -0.9075
H    2.5038   -1.0810   -0.8900
H    2.5043   -1.0668    0.8899
H    1.2557    1.0754    0.8732
H    1.2551    1.0612   -0.9068
H    0.0053   -1.0803   -0.8893
H    0.0059   -1.0661    0.8906
H   -1.2428    1.0761    0.8739
H   -1.2434    1.0619   -0.9060
H   -2.4932   -1.0797   -0.8885
H   -2.4926   -1.0655    0.8914
H   -3.7413    1.0768    0.8747
H   -3.7418    1.0626   -0.9052
H   -4.9917   -1.0790   -0.8877
H   -4.9911   -1.0648    0.8922
H   -6.2398    1.0774    0.8755
H   -6.2403    1.0632   -0.9044
H   -7.4901   -1.0783   -0.8869
H   -7.4896   -1.0641    0.8930
H   -8.7382    1.0781    0.8763
H   -8.7388    1.0639   -0.9036
H   -9.9886   -1.0777   -0.8861
H   -9.9880   -1.0635    0.8938
H  -11.2367    1.0788    0.8771
H  -11.2373    1.0646   -0.9028
H  -12.4871   -1.0770   -0.8853
H  -12.4865   -1.0628    0.8946
H  -13.7352    1.0794    0.8779
H  -13.7358    1.0652   -0.9020
H  -14.9856   -1.0763   -0.8845
H  -14.9850   -1.0621    0.8954
H  -16.2337    1.0801    0.8787
H  -16.2342    1.0659   -0.9012
H  -17.4841   -1.0757   -0.8837
H  -17.4835   -1.0614    0.8962
H  -18.7322    1.0808    0.8795
H  -18.7327    1.0666   -0.9004
H  -19.9825   -1.0750   -0.8829
H  -19.9820   -1.0608    0.8970
H  -21.2306    1.0815    0.8803
H  -21.2312    1.0672   -0.8996
H  -22.4810   -1.0743   -0.8822
H  -22.4804   -1.0601    0.8978
H  -23.7291    1.0821    0.8810
H  -23.7297    1.0679   -0.8989
H  -24.9795   -1.0737   -0.8814
H  -24.9789   -1.0594    0.8985
H  -26.2276    1.0828    0.8818
H  -26.2282    1.0686   -0.8981
H  -27.4780   -1.0730   -0.8806
H  -27.4774   -1.0588    0.8993
H  -28.7261    1.0835    0.8826
H  -28.7266    1.0693   -0.8973
H  -29.9764   -1.0723   -0.8798
H  -29.9759   -1.0581    0.9001
H  -31.2246    1.0841    0.8834
H  -31.2251    1.0699   -0.8965
H  -32.4749   -1.0716   -0.8790
H  -32.4744   -1.0574    0.9009
H  -33.7230    1.0848    0.8842
H  -33.7236    1.0706   -0.8957
H  -34.9734   -1.0710   -0.8782
H  -34.9728   -1.0568    0.9017
H  -36.2215    1.0855    0.8850
H  -36.2221    1.0713   -0.8949
H  -37.4719   -1.0703   -0.8774
H  -37.4713   -1.0561    0.9025
H  -38.7200    1.0861    0.8858
H  -38.7206    1.0719   -0.8941
H  -39.9704   -1.0696   -0.8766
H  -39.9698   -1.0554    0.9033
H  -41.2185    1.0868    0.8866
H  -41.2190    1.0726   -0.8933
H  -42.4688   -1.0690   -0.8758
H  -42.4683   -1.0548    0.9041
H  -43.7169    1.0875    0.8874
H  -43.7175    1.0733   -0.8925
H  -44.9673   -1.0683   -0.8750
H  -44.9668   -1.0541    0.9049
H  -46.2154    1.0881    0.8881
H  -46.2160    1.0739   -0.8918
H  -47.4658   -1.0676   -0.8743
H  -47.4652   -1.0534    0.9056
H  -48.7139    1.0888    0.8889
H  -48.7145    1.0746   -0.8910
H  -49.9643   -1.0670   -0.8735
H  -49.9637   -1.0528    0.9064
H  -51.2124    1.0895    0.8897
H  -51.2130    1.0753   -0.8902
H  -52.4628   -1.0663   -0.8727
H  -52.4622   -1.0521    0.9072
H  -53.7109    1.0902    0.8905
H  -53.7114    1.0759   -0.8894
H  -54.9612   -1.0656   -0.8719
H  -54.9607   -1.0514    0.9080
H  -56.2093    1.0908    0.8913
H  -56.2099    1.0766   -0.8886
H  -57.4597   -1.0650   -0.8711
H  -57.4592   -1.0507    0.9088
H  -58.7078    1.0915    0.8921
H  -58.7084    1.0773   -0.8878
H  -59.9582   -1.0643   -0.8703
H  -59.9576   -1.0501    0.9096
H  -61.2063    1.0922    0.8929
H  -61.2069    1.0779   -0.8870
H  -62.4567   -1.0636   -0.8695
H  -62.4561   -1.0494    0.9104
H  -63.7048    1.0928    0.8937
H  -63.7053    1.0786   -0.8862
H  -64.9552   -1.0630   -0.8687
H  -64.9546   -1.0487    0.9112
H  -66.2033    1.0935    0.8945
H  -66.2038    1.0793   -0.8854
H  -67.4536   -1.0623   -0.8679
H  -67.4531   -1.0481    0.9120
H  -68.7017    1.0942    0.8953
H  -68.7023    1.0800   -0.8847
H  -69.9521   -1.0616   -0.8672
H  -69.9516   -1.0474    0.9128
H  -71.2002    1.0948    0.8960
H  -71.2008    1.0806   -0.8839
H  -73.3400    0.2050    0.0138
H  -72.4506   -1.0609   -0.8664
H  -72.4500   -1.0467    0.9135
