181
C60H120O
C   36.2191    0.3883   -0.0624
C   34.9878   -0.4805   -0.0485
C   33.7394    0.4040   -0.0598
C   32.4893   -0.4780   -0.0456
C   31.2409    0.4065   -0.0570
C   29.9908   -0.4756   -0.0428
C   28.7424    0.4089   -0.0541
C   27.4923   -0.4731   -0.0399
C   26.2439    0.4114   -0.0513
C   24.9939   -0.4706   -0.0371
C   23.7455    0.4138   -0.0484
C   22.4954   -0.4682   -0.0342
C   21.2470    0.4163   -0.0456
C   19.9969   -0.4657   -0.0314
C   18.7485    0.4187   -0.0427
C   17.4984   -0.4633   -0.0286
C   16.2500    0.4212   -0.0399
C   15.0000   -0.4608   -0.0257
C   13.7516    0.4236   -0.0371
C   12.5015   -0.4584   -0.0229
C   11.2531    0.4261   -0.0342
C   10.0030   -0.4559   -0.0200
C    8.7546    0.4286   -0.0314
C    7.5045   -0.4535   -0.0172
C    6.2561    0.4310   -0.0285
C    5.0060   -0.4510   -0.0143
C    3.7577    0.4335   -0.0257
C    2.5076   -0.4486   -0.0115
C    1.2592    0.4359   -0.0228
C    0.0091   -0.4461   -0.0086
C   -1.2393    0.4384   -0.0200
C   -2.4894   -0.4437   -0.0058
C   -3.7378    0.4408   -0.0171
C   -4.9879   -0.4412   -0.0030
C   -6.2362    0.4433   -0.0143
C   -7.4863   -0.4387   -0.0001
C   -8.7347    0.4457   -0.0115
C   -9.9848   -0.4363    0.0027
C  -11.2332    0.4482   -0.0086
C  -12.4833   -0.4338    0.0056
C  -13.7317    0.4506   -0.0058
C  -14.9818   -0.4314    0.0084
C  -16.2302    0.4531   -0.0029
C  -17.4802   -0.4289    0.0113
C  -18.7286    0.4555   -0.0001
C  -19.9787   -0.4265    0.0141
C  -21.2271    0.4580    0.0028
C  -22.4772   -0.4240    0.0170
C  -23.7256    0.4605    0.0056
C  -24.9757   -0.4216    0.0198
C  -26.2241    0.4629    0.0085
C  -27.4742   -0.4191    0.0227
C  -28.7225    0.4654    0.0113
C  -29.9726   -0.4167    0.0255
C  -31.2210    0.4678    0.0141
C  -32.4711   -0.4142    0.0283
C  -33.7195    0.4703    0.0170
C  -34.9696   -0.4118    0.0312
C  -36.2180    0.4727    0.0198
C  -37.4681   -0.4093    0.0340
O   37.0592    0.2587    0.7952
H   36.3522    1.1238   -0.8420
H   34.9861   -1.1226   -0.9293
H   34.9882   -1.0968    0.8505
H   33.7410    1.0461    0.8210
H   33.7390    1.0204   -0.9588
H   32.4877   -1.1201   -0.9264
H   32.4897   -1.0944    0.8534
H   31.2425    1.0486    0.8238
H   31.2405    1.0229   -0.9560
H   29.9892   -1.1177   -0.9236
H   29.9912   -1.0919    0.8562
H   28.7441    1.0510    0.8267
H   28.7420    1.0253   -0.9531
H   27.4907   -1.1152   -0.9207
H   27.4928   -1.0895    0.8591
H   26.2456    1.0535    0.8295
H   26.2435    1.0278   -0.9503
H   24.9922   -1.1128   -0.9179
H   24.9943   -1.0870    0.8619
H   23.7471    1.0559    0.8324
H   23.7451    1.0302   -0.9474
H   22.4937   -1.1103   -0.9150
H   22.4958   -1.0846    0.8647
H   21.2486    1.0584    0.8352
H   21.2466    1.0327   -0.9446
H   19.9953   -1.1079   -0.9122
H   19.9973   -1.0821    0.8676
H   18.7502    1.0609    0.8380
H   18.7481    1.0351   -0.9417
H   17.4968   -1.1054   -0.9093
H   17.4988   -1.0797    0.8704
H   16.2517    1.0633    0.8409
H   16.2496    1.0376   -0.9389
H   14.9983   -1.1029   -0.9065
H   15.0004   -1.0772    0.8733
H   13.7532    1.0658    0.8437
H   13.7511    1.0400   -0.9360
H   12.4998   -1.1005   -0.9037
H   12.5019   -1.0748    0.8761
H   11.2547    1.0682    0.8466
H   11.2527    1.0425   -0.9332
H   10.0014   -1.0980   -0.9008
H   10.0034   -1.0723    0.8790
H    8.7562    1.0707    0.8494
H    8.7542    1.0449   -0.9304
H    7.5029   -1.0956   -0.8980
H    7.5049   -1.0699    0.8818
H    6.2578    1.0731    0.8523
H    6.2557    1.0474   -0.9275
H    5.0044   -1.0931   -0.8951
H    5.0065   -1.0674    0.8847
H    3.7593    1.0756    0.8551
H    3.7572    1.0498   -0.9247
H    2.5059   -1.0907   -0.8923
H    2.5080   -1.0649    0.8875
H    1.2608    1.0780    0.8580
H    1.2588    1.0523   -0.9218
H    0.0075   -1.0882   -0.8894
H    0.0095   -1.0625    0.8903
H   -1.2377    1.0805    0.8608
H   -1.2397    1.0547   -0.9190
H   -2.4910   -1.0858   -0.8866
H   -2.4890   -1.0600    0.8932
H   -3.7361    1.0829    0.8636
H   -3.7382    1.0572   -0.9161
H   -4.9895   -1.0833   -0.8837
H   -4.9874   -1.0576    0.8960
H   -6.2346    1.0854    0.8665
H   -6.2367    1.0597   -0.9133
H   -7.4880   -1.0809   -0.8809
H   -7.4859   -1.0551    0.8989
H   -8.7331    1.0878    0.8693
H   -8.7351    1.0621   -0.9104
H   -9.9864   -1.0784   -0.8780
H   -9.9844   -1.0527    0.9017
H  -11.2316    1.0903    0.8722
H  -11.2336    1.0646   -0.9076
H  -12.4849   -1.0760   -0.8752
H  -12.4829   -1.0502    0.9046
H  -13.7300    1.0928    0.8750
H  -13.7321    1.0670   -0.9048
H  -14.9834   -1.0735   -0.8724
H  -14.9813   -1.0478    0.9074
H  -16.2285    1.0952    0.8779
H  -16.2306    1.0695   -0.9019
H  -17.4819   -1.0710   -0.8695
H  -17.4798   -1.0453    0.9103
H  -18.7270    1.0977    0.8807
H  -18.7290    1.0719   -0.8991
H  -19.9804   -1.0686   -0.8667
H  -19.9783   -1.0429    0.9131
H  -21.2255    1.1001    0.8836
H  -21.2275    1.0744   -0.8962
H  -22.4788   -1.0661   -0.8638
H  -22.4768   -1.0404    0.9160
H  -23.7239    1.1026    0.8864
H  -23.7260    1.0768   -0.8934
H  -24.9773   -1.0637   -0.8610
H  -24.9753   -1.0380    0.9188
H  -26.2224    1.1050    0.8892
H  -26.2245    1.0793   -0.8905
H  -27.4758   -1.0612   -0.8581
H  -27.4737   -1.0355    0.9216
H  -28.7209    1.1075    0.8921
H  -28.7230    1.0817   -0.8877
H  -29.9743   -1.0588   -0.8553
H  -29.9722   -1.0330    0.9245
H  -31.2194    1.1099    0.8949
H  -31.2214    1.0842   -0.8848
H  -32.4727   -1.0563   -0.8524
H  -32.4707   -1.0306    0.9273
H  -33.7179    1.1124    0.8978
H  -33.7199    1.0866   -0.8820
H  -34.9712   -1.0539   -0.8496
H  -34.9692   -1.0281    0.9302
H  -36.2163    1.1148    0.9006
H  -36.2184    1.0891   -0.8792
H  -37.4697   -1.0514   -0.8468
H  -37.4676   -1.0257    0.9330
H  -38.3574    0.2208    0.0259
