232
C77H154O
C   46.8356    0.4088   -0.0501
C   45.6050   -0.4609   -0.0385
C   44.3559    0.4226   -0.0485
C   43.1065   -0.4604   -0.0367
C   41.8575    0.4231   -0.0467
C   40.6081   -0.4599   -0.0350
C   39.3590    0.4236   -0.0450
C   38.1096   -0.4594   -0.0332
C   36.8605    0.4241   -0.0432
C   35.6111   -0.4589   -0.0314
C   34.3620    0.4247   -0.0414
C   33.1126   -0.4584   -0.0297
C   31.8636    0.4252   -0.0397
C   30.6141   -0.4579   -0.0279
C   29.3651    0.4257   -0.0379
C   28.1157   -0.4573   -0.0261
C   26.8666    0.4262   -0.0361
C   25.6172   -0.4568   -0.0244
C   24.3681    0.4267   -0.0344
C   23.1187   -0.4563   -0.0226
C   21.8696    0.4272   -0.0326
C   20.6202   -0.4558   -0.0208
C   19.3712    0.4277   -0.0308
C   18.1217   -0.4553   -0.0191
C   16.8727    0.4282   -0.0291
C   15.6233   -0.4548   -0.0173
C   14.3742    0.4288   -0.0273
C   13.1248   -0.4543   -0.0155
C   11.8757    0.4293   -0.0255
C   10.6263   -0.4538   -0.0138
C    9.3772    0.4298   -0.0238
C    8.1278   -0.4532   -0.0120
C    6.8788    0.4303   -0.0220
C    5.6294   -0.4527   -0.0102
C    4.3803    0.4308   -0.0202
C    3.1309   -0.4522   -0.0085
C    1.8818    0.4313   -0.0184
C    0.6324   -0.4517   -0.0067
C   -0.6167    0.4318   -0.0167
C   -1.8661   -0.4512   -0.0049
C   -3.1152    0.4323   -0.0149
C   -4.3646   -0.4507   -0.0032
C   -5.6136    0.4329   -0.0131
C   -6.8630   -0.4502   -0.0014
C   -8.1121    0.4334   -0.0114
C   -9.3615   -0.4497    0.0004
C  -10.6106    0.4339   -0.0096
C  -11.8600   -0.4491    0.0022
C  -13.1091    0.4344   -0.0078
C  -14.3585   -0.4486    0.0039
C  -15.6075    0.4349   -0.0061
C  -16.8570   -0.4481    0.0057
C  -18.1060    0.4354   -0.0043
C  -19.3554   -0.4476    0.0075
C  -20.6045    0.4359   -0.0025
C  -21.8539   -0.4471    0.0092
C  -23.1030    0.4364   -0.0008
C  -24.3524   -0.4466    0.0110
C  -25.6015    0.4369    0.0010
C  -26.8509   -0.4461    0.0128
C  -28.0999    0.4375    0.0028
C  -29.3494   -0.4456    0.0145
C  -30.5984    0.4380    0.0045
C  -31.8478   -0.4450    0.0163
C  -33.0969    0.4385    0.0063
C  -34.3463   -0.4445    0.0181
C  -35.5954    0.4390    0.0081
C  -36.8448   -0.4440    0.0198
C  -38.0939    0.4395    0.0098
C  -39.3433   -0.4435    0.0216
C  -40.5923    0.4400    0.0116
C  -41.8417   -0.4430    0.0234
C  -43.0908    0.4405    0.0134
C  -44.3402   -0.4425    0.0251
C  -45.5893    0.4410    0.0151
C  -46.8387   -0.4420    0.0269
C  -48.0878    0.4416    0.0169
O   47.6755    0.2780    0.8077
H   46.9685    1.1460   -0.8280
H   45.6043   -1.1012   -0.9207
H   45.6055   -1.0792    0.8592
H   44.3567    1.0628    0.8337
H   44.3554    1.0409   -0.9462
H   43.1058   -1.1006   -0.9189
H   43.1070   -1.0787    0.8609
H   41.8582    1.0633    0.8354
H   41.8570    1.0414   -0.9444
H   40.6073   -1.1001   -0.9171
H   40.6086   -1.0782    0.8627
H   39.3597    1.0639    0.8372
H   39.3585    1.0419   -0.9426
H   38.1088   -1.0996   -0.9154
H   38.1101   -1.0777    0.8645
H   36.8613    1.0644    0.8390
H   36.8600    1.0424   -0.9409
H   35.6103   -1.0991   -0.9136
H   35.6116   -1.0772    0.8662
H   34.3628    1.0649    0.8407
H   34.3615    1.0430   -0.9391
H   33.1119   -1.0986   -0.9118
H   33.1131   -1.0767    0.8680
H   31.8643    1.0654    0.8425
H   31.8630    1.0435   -0.9373
H   30.6134   -1.0981   -0.9101
H   30.6146   -1.0762    0.8698
H   29.3658    1.0659    0.8443
H   29.3646    1.0440   -0.9356
H   28.1149   -1.0976   -0.9083
H   28.1162   -1.0756    0.8715
H   26.8673    1.0664    0.8460
H   26.8661    1.0445   -0.9338
H   25.6164   -1.0971   -0.9065
H   25.6177   -1.0751    0.8733
H   24.3689    1.0669    0.8478
H   24.3676    1.0450   -0.9320
H   23.1179   -1.0965   -0.9048
H   23.1192   -1.0746    0.8751
H   21.8704    1.0674    0.8496
H   21.8691    1.0455   -0.9302
H   20.6195   -1.0960   -0.9030
H   20.6207   -1.0741    0.8768
H   19.3719    1.0680    0.8513
H   19.3707    1.0460   -0.9285
H   18.1210   -1.0955   -0.9012
H   18.1223   -1.0736    0.8786
H   16.8734    1.0685    0.8531
H   16.8722    1.0465   -0.9267
H   15.6225   -1.0950   -0.8994
H   15.6238   -1.0731    0.8804
H   14.3750    1.0690    0.8549
H   14.3737    1.0471   -0.9249
H   13.1240   -1.0945   -0.8977
H   13.1253   -1.0726    0.8821
H   11.8765    1.0695    0.8566
H   11.8752    1.0476   -0.9232
H   10.6256   -1.0940   -0.8959
H   10.6268   -1.0721    0.8839
H    9.3780    1.0700    0.8584
H    9.3767    1.0481   -0.9214
H    8.1271   -1.0935   -0.8941
H    8.1283   -1.0715    0.8857
H    6.8795    1.0705    0.8602
H    6.8783    1.0486   -0.9196
H    5.6286   -1.0930   -0.8924
H    5.6299   -1.0710    0.8874
H    4.3810    1.0710    0.8619
H    4.3798    1.0491   -0.9179
H    3.1301   -1.0924   -0.8906
H    3.1314   -1.0705    0.8892
H    1.8826    1.0715    0.8637
H    1.8813    1.0496   -0.9161
H    0.6316   -1.0919   -0.8888
H    0.6329   -1.0700    0.8910
H   -0.6159    1.0721    0.8655
H   -0.6172    1.0501   -0.9143
H   -1.8668   -1.0914   -0.8871
H   -1.8656   -1.0695    0.8927
H   -3.1144    1.0726    0.8672
H   -3.1157    1.0506   -0.9126
H   -4.3653   -1.0909   -0.8853
H   -4.3641   -1.0690    0.8945
H   -5.6129    1.0731    0.8690
H   -5.6141    1.0512   -0.9108
H   -6.8638   -1.0904   -0.8835
H   -6.8625   -1.0685    0.8963
H   -8.1114    1.0736    0.8708
H   -8.1126    1.0517   -0.9090
H   -9.3623   -1.0899   -0.8818
H   -9.3610   -1.0680    0.8980
H  -10.6098    1.0741    0.8725
H  -10.6111    1.0522   -0.9073
H  -11.8608   -1.0894   -0.8800
H  -11.8595   -1.0674    0.8998
H  -13.1083    1.0746    0.8743
H  -13.1096    1.0527   -0.9055
H  -14.3592   -1.0889   -0.8782
H  -14.3580   -1.0669    0.9016
H  -15.6068    1.0751    0.8761
H  -15.6081    1.0532   -0.9037
H  -16.8577   -1.0884   -0.8765
H  -16.8564   -1.0664    0.9034
H  -18.1053    1.0756    0.8778
H  -18.1065    1.0537   -0.9020
H  -19.3562   -1.0878   -0.8747
H  -19.3549   -1.0659    0.9051
H  -20.6037    1.0762    0.8796
H  -20.6050    1.0542   -0.9002
H  -21.8547   -1.0873   -0.8729
H  -21.8534   -1.0654    0.9069
H  -23.1022    1.0767    0.8814
H  -23.1035    1.0547   -0.8984
H  -24.3531   -1.0868   -0.8712
H  -24.3519   -1.0649    0.9087
H  -25.6007    1.0772    0.8831
H  -25.6020    1.0552   -0.8967
H  -26.8516   -1.0863   -0.8694
H  -26.8504   -1.0644    0.9104
H  -28.0992    1.0777    0.8849
H  -28.1004    1.0558   -0.8949
H  -29.3501   -1.0858   -0.8676
H  -29.3488   -1.0639    0.9122
H  -30.5977    1.0782    0.8867
H  -30.5989    1.0563   -0.8931
H  -31.8486   -1.0853   -0.8659
H  -31.8473   -1.0633    0.9140
H  -33.0961    1.0787    0.8884
H  -33.0974    1.0568   -0.8914
H  -34.3471   -1.0848   -0.8641
H  -34.3458   -1.0628    0.9157
H  -35.5946    1.0792    0.8902
H  -35.5959    1.0573   -0.8896
H  -36.8455   -1.0843   -0.8623
H  -36.8443   -1.0623    0.9175
H  -38.0931    1.0797    0.8920
H  -38.0944    1.0578   -0.8878
H  -39.3440   -1.0837   -0.8606
H  -39.3428   -1.0618    0.9193
H  -40.5916    1.0803    0.8938
H  -40.5928    1.0583   -0.8861
H  -41.8425   -1.0832   -0.8588
H  -41.8412   -1.0613    0.9210
H  -43.0901    1.0808    0.8955
H  -43.0913    1.0588   -0.8843
H  -44.3410   -1.0827   -0.8570
H  -44.3397   -1.0608    0.9228
H  -45.5885    1.0813    0.8973
H  -45.5898    1.0593   -0.8825
H  -46.8395   -1.0822   -0.8553
H  -46.8382   -1.0603    0.9246
H  -48.9779   -0.1875    0.0253
H  -48.0870    1.0818    0.8991
H  -48.0883    1.0599   -0.8808
