49
C16H32O
C    8.7578    0.3028   -0.1855
C    7.5172   -0.5515   -0.1393
C    6.2787    0.3467   -0.1526
C    5.0192   -0.5206   -0.1057
C    3.7807    0.3776   -0.1190
C    2.5211   -0.4897   -0.0721
C    1.2826    0.4086   -0.0855
C    0.0230   -0.4587   -0.0386
C   -1.2155    0.4395   -0.0519
C   -2.4750   -0.4278   -0.0050
C   -3.7135    0.4704   -0.0183
C   -4.9731   -0.3969    0.0286
C   -6.2116    0.5013    0.0152
C   -7.4712   -0.3660    0.0621
C   -8.7097    0.5322    0.0488
C   -9.9692   -0.3351    0.0957
O    9.6072    0.1804    0.6642
H    8.8894    1.0213   -0.9809
H    7.4974   -1.2106   -1.0072
H    7.5221   -1.1502    0.7716
H    6.2985    1.0058    0.7153
H    6.2739    0.9454   -1.0634
H    4.9993   -1.1797   -0.9736
H    5.0240   -1.1193    0.8051
H    3.8005    1.0367    0.7489
H    3.7758    0.9764   -1.0299
H    2.5013   -1.1488   -0.9401
H    2.5259   -1.0884    0.8387
H    1.3024    1.0677    0.7825
H    1.2778    1.0073   -0.9963
H    0.0032   -1.1178   -0.9065
H    0.0279   -1.0575    0.8723
H   -1.1957    1.0986    0.8160
H   -1.2203    1.0382   -0.9627
H   -2.4948   -1.0869   -0.8729
H   -2.4702   -1.0265    0.9058
H   -3.6937    1.1295    0.8496
H   -3.7184    1.0691   -0.9292
H   -4.9929   -1.0560   -0.8394
H   -4.9683   -0.9956    0.9394
H   -6.1918    1.1604    0.8831
H   -6.2164    1.1000   -0.8956
H   -7.4910   -1.0251   -0.8058
H   -7.4663   -0.9647    0.9730
H   -8.6898    1.1913    0.9167
H   -8.7145    1.1309   -0.8621
H   -9.9890   -0.9942   -0.7722
H   -9.9644   -0.9338    1.0065
H  -10.8516    0.3048    0.0862
