292
C97H194O
C   59.3268    0.4128   -0.0403
C   58.0962   -0.4571   -0.0311
C   56.8471    0.4264   -0.0393
C   55.5978   -0.4568   -0.0300
C   54.3486    0.4267   -0.0382
C   53.0993   -0.4564   -0.0289
C   51.8501    0.4270   -0.0370
C   50.6008   -0.4561   -0.0278
C   49.3517    0.4273   -0.0359
C   48.1023   -0.4558   -0.0266
C   46.8532    0.4277   -0.0348
C   45.6038   -0.4555   -0.0255
C   44.3547    0.4280   -0.0337
C   43.1054   -0.4551   -0.0244
C   41.8562    0.4283   -0.0325
C   40.6069   -0.4548   -0.0233
C   39.3577    0.4286   -0.0314
C   38.1084   -0.4545   -0.0221
C   36.8593    0.4290   -0.0303
C   35.6099   -0.4542   -0.0210
C   34.3608    0.4293   -0.0292
C   33.1114   -0.4538   -0.0199
C   31.8623    0.4296   -0.0280
C   30.6130   -0.4535   -0.0188
C   29.3638    0.4299   -0.0269
C   28.1145   -0.4532   -0.0176
C   26.8654    0.4303   -0.0258
C   25.6160   -0.4529   -0.0165
C   24.3669    0.4306   -0.0247
C   23.1175   -0.4525   -0.0154
C   21.8684    0.4309   -0.0235
C   20.6190   -0.4522   -0.0143
C   19.3699    0.4312   -0.0224
C   18.1206   -0.4519   -0.0131
C   16.8714    0.4316   -0.0213
C   15.6221   -0.4516   -0.0120
C   14.3730    0.4319   -0.0202
C   13.1236   -0.4512   -0.0109
C   11.8745    0.4322   -0.0190
C   10.6251   -0.4509   -0.0097
C    9.3760    0.4325   -0.0179
C    8.1266   -0.4506   -0.0086
C    6.8775    0.4329   -0.0168
C    5.6282   -0.4503   -0.0075
C    4.3790    0.4332   -0.0156
C    3.1297   -0.4499   -0.0064
C    1.8806    0.4335   -0.0145
C    0.6312   -0.4496   -0.0052
C   -0.6179    0.4338   -0.0134
C   -1.8673   -0.4493   -0.0041
C   -3.1164    0.4342   -0.0123
C   -4.3658   -0.4490   -0.0030
C   -5.6149    0.4345   -0.0111
C   -6.8642   -0.4487   -0.0019
C   -8.1134    0.4348   -0.0100
C   -9.3627   -0.4483   -0.0007
C  -10.6118    0.4351   -0.0089
C  -11.8612   -0.4480    0.0004
C  -13.1103    0.4355   -0.0078
C  -14.3597   -0.4477    0.0015
C  -15.6088    0.4358   -0.0066
C  -16.8581   -0.4474    0.0026
C  -18.1073    0.4361   -0.0055
C  -19.3566   -0.4470    0.0038
C  -20.6058    0.4364   -0.0044
C  -21.8551   -0.4467    0.0049
C  -23.1042    0.4368   -0.0033
C  -24.3536   -0.4464    0.0060
C  -25.6027    0.4371   -0.0021
C  -26.8521   -0.4461    0.0071
C  -28.1012    0.4374   -0.0010
C  -29.3505   -0.4457    0.0083
C  -30.5997    0.4377    0.0001
C  -31.8490   -0.4454    0.0094
C  -33.0982    0.4381    0.0012
C  -34.3475   -0.4451    0.0105
C  -35.5966    0.4384    0.0024
C  -36.8460   -0.4448    0.0116
C  -38.0951    0.4387    0.0035
C  -39.3445   -0.4444    0.0128
C  -40.5936    0.4390    0.0046
C  -41.8429   -0.4441    0.0139
C  -43.0921    0.4394    0.0057
C  -44.3414   -0.4438    0.0150
C  -45.5905    0.4397    0.0069
C  -46.8399   -0.4435    0.0161
C  -48.0890    0.4400    0.0080
C  -49.3384   -0.4431    0.0173
C  -50.5875    0.4403    0.0091
C  -51.8369   -0.4428    0.0184
C  -53.0860    0.4407    0.0102
C  -54.3353   -0.4425    0.0195
C  -55.5845    0.4410    0.0114
C  -56.8338   -0.4422    0.0207
C  -58.0829    0.4413    0.0125
C  -59.3323   -0.4418    0.0218
C  -60.5814    0.4416    0.0136
O   60.1665    0.2799    0.8174
H   59.4598    1.1519   -0.8164
H   58.0957   -1.0952   -0.9149
H   58.0966   -1.0776    0.8650
H   56.8476    1.0644    0.8444
H   56.8468    1.0469   -0.9354
H   55.5973   -1.0948   -0.9137
H   55.5981   -1.0773    0.8661
H   54.3491    1.0648    0.8456
H   54.3483    1.0472   -0.9343
H   53.0988   -1.0945   -0.9126
H   53.0996   -1.0769    0.8673
H   51.8506    1.0651    0.8467
H   51.8498    1.0475   -0.9332
H   50.6003   -1.0942   -0.9115
H   50.6011   -1.0766    0.8684
H   49.3521    1.0654    0.8478
H   49.3513    1.0478   -0.9321
H   48.1018   -1.0939   -0.9104
H   48.1026   -1.0763    0.8695
H   46.8537    1.0657    0.8489
H   46.8529    1.0482   -0.9309
H   45.6034   -1.0935   -0.9092
H   45.6042   -1.0760    0.8706
H   44.3552    1.0661    0.8501
H   44.3544    1.0485   -0.9298
H   43.1049   -1.0932   -0.9081
H   43.1057   -1.0756    0.8718
H   41.8567    1.0664    0.8512
H   41.8559    1.0488   -0.9287
H   40.6064   -1.0929   -0.9070
H   40.6072   -1.0753    0.8729
H   39.3582    1.0667    0.8523
H   39.3574    1.0491   -0.9276
H   38.1079   -1.0926   -0.9059
H   38.1087   -1.0750    0.8740
H   36.8597    1.0670    0.8534
H   36.8589    1.0495   -0.9264
H   35.6094   -1.0922   -0.9047
H   35.6102   -1.0747    0.8751
H   34.3613    1.0674    0.8546
H   34.3605    1.0498   -0.9253
H   33.1110   -1.0919   -0.9036
H   33.1118   -1.0743    0.8763
H   31.8628    1.0677    0.8557
H   31.8620    1.0501   -0.9242
H   30.6125   -1.0916   -0.9025
H   30.6133   -1.0740    0.8774
H   29.3643    1.0680    0.8568
H   29.3635    1.0504   -0.9231
H   28.1140   -1.0913   -0.9014
H   28.1148   -1.0737    0.8785
H   26.8658    1.0683    0.8580
H   26.8650    1.0508   -0.9219
H   25.6155   -1.0909   -0.9002
H   25.6163   -1.0734    0.8796
H   24.3674    1.0687    0.8591
H   24.3665    1.0511   -0.9208
H   23.1170   -1.0906   -0.8991
H   23.1178   -1.0731    0.8808
H   21.8689    1.0690    0.8602
H   21.8681    1.0514   -0.9197
H   20.6186   -1.0903   -0.8980
H   20.6194   -1.0727    0.8819
H   19.3704    1.0693    0.8613
H   19.3696    1.0517   -0.9185
H   18.1201   -1.0900   -0.8969
H   18.1209   -1.0724    0.8830
H   16.8719    1.0696    0.8625
H   16.8711    1.0521   -0.9174
H   15.6216   -1.0896   -0.8957
H   15.6224   -1.0721    0.8841
H   14.3734    1.0700    0.8636
H   14.3726    1.0524   -0.9163
H   13.1231   -1.0893   -0.8946
H   13.1239   -1.0718    0.8853
H   11.8750    1.0703    0.8647
H   11.8742    1.0527   -0.9152
H   10.6246   -1.0890   -0.8935
H   10.6254   -1.0714    0.8864
H    9.3765    1.0706    0.8658
H    9.3757    1.0530   -0.9140
H    8.1262   -1.0887   -0.8924
H    8.1270   -1.0711    0.8875
H    6.8780    1.0709    0.8670
H    6.8772    1.0534   -0.9129
H    5.6277   -1.0883   -0.8912
H    5.6285   -1.0708    0.8886
H    4.3795    1.0713    0.8681
H    4.3787    1.0537   -0.9118
H    3.1292   -1.0880   -0.8901
H    3.1300   -1.0705    0.8898
H    1.8810    1.0716    0.8692
H    1.8802    1.0540   -0.9107
H    0.6307   -1.0877   -0.8890
H    0.6315   -1.0701    0.8909
H   -0.6174    1.0719    0.8703
H   -0.6182    1.0543   -0.9095
H   -1.8678   -1.0874   -0.8878
H   -1.8669   -1.0698    0.8920
H   -3.1159    1.0722    0.8715
H   -3.1167    1.0547   -0.9084
H   -4.3662   -1.0870   -0.8867
H   -4.3654   -1.0695    0.8932
H   -5.6144    1.0726    0.8726
H   -5.6152    1.0550   -0.9073
H   -6.8647   -1.0867   -0.8856
H   -6.8639   -1.0692    0.8943
H   -8.1129    1.0729    0.8737
H   -8.1137    1.0553   -0.9062
H   -9.3632   -1.0864   -0.8845
H   -9.3624   -1.0688    0.8954
H  -10.6114    1.0732    0.8748
H  -10.6122    1.0556   -0.9050
H  -11.8617   -1.0861   -0.8833
H  -11.8609   -1.0685    0.8965
H  -13.1098    1.0735    0.8760
H  -13.1106    1.0560   -0.9039
H  -14.3601   -1.0857   -0.8822
H  -14.3593   -1.0682    0.8977
H  -15.6083    1.0739    0.8771
H  -15.6091    1.0563   -0.9028
H  -16.8586   -1.0854   -0.8811
H  -16.8578   -1.0679    0.8988
H  -18.1068    1.0742    0.8782
H  -18.1076    1.0566   -0.9017
H  -19.3571   -1.0851   -0.8800
H  -19.3563   -1.0675    0.8999
H  -20.6053    1.0745    0.8793
H  -20.6061    1.0569   -0.9005
H  -21.8556   -1.0848   -0.8788
H  -21.8548   -1.0672    0.9010
H  -23.1038    1.0748    0.8805
H  -23.1046    1.0573   -0.8994
H  -24.3541   -1.0844   -0.8777
H  -24.3533   -1.0669    0.9022
H  -25.6022    1.0751    0.8816
H  -25.6030    1.0576   -0.8983
H  -26.8525   -1.0841   -0.8766
H  -26.8517   -1.0666    0.9033
H  -28.1007    1.0755    0.8827
H  -28.1015    1.0579   -0.8972
H  -29.3510   -1.0838   -0.8755
H  -29.3502   -1.0662    0.9044
H  -30.5992    1.0758    0.8838
H  -30.6000    1.0582   -0.8960
H  -31.8495   -1.0835   -0.8743
H  -31.8487   -1.0659    0.9055
H  -33.0977    1.0761    0.8850
H  -33.0985    1.0586   -0.8949
H  -34.3480   -1.0831   -0.8732
H  -34.3472   -1.0656    0.9067
H  -35.5961    1.0764    0.8861
H  -35.5970    1.0589   -0.8938
H  -36.8465   -1.0828   -0.8721
H  -36.8457   -1.0653    0.9078
H  -38.0946    1.0768    0.8872
H  -38.0954    1.0592   -0.8927
H  -39.3449   -1.0825   -0.8710
H  -39.3441   -1.0649    0.9089
H  -40.5931    1.0771    0.8883
H  -40.5939    1.0595   -0.8915
H  -41.8434   -1.0822   -0.8698
H  -41.8426   -1.0646    0.9100
H  -43.0916    1.0774    0.8895
H  -43.0924    1.0599   -0.8904
H  -44.3419   -1.0818   -0.8687
H  -44.3411   -1.0643    0.9112
H  -45.5901    1.0777    0.8906
H  -45.5909    1.0602   -0.8893
H  -46.8404   -1.0815   -0.8676
H  -46.8396   -1.0640    0.9123
H  -48.0885    1.0781    0.8917
H  -48.0893    1.0605   -0.8882
H  -49.3389   -1.0812   -0.8665
H  -49.3381   -1.0636    0.9134
H  -50.5870    1.0784    0.8928
H  -50.5878    1.0608   -0.8870
H  -51.8373   -1.0809   -0.8653
H  -51.8365   -1.0633    0.9145
H  -53.0855    1.0787    0.8940
H  -53.0863    1.0612   -0.8859
H  -54.3358   -1.0805   -0.8642
H  -54.3350   -1.0630    0.9157
H  -55.5840    1.0790    0.8951
H  -55.5848    1.0615   -0.8848
H  -56.8343   -1.0802   -0.8631
H  -56.8335   -1.0627    0.9168
H  -58.0825    1.0794    0.8962
H  -58.0833    1.0618   -0.8837
H  -59.3328   -1.0799   -0.8620
H  -59.3320   -1.0623    0.9179
H  -60.5809    1.0797    0.8973
H  -60.5817    1.0621   -0.8825
H  -61.4715   -0.1875    0.0202
