319
C106H212O
C   64.9481    0.4051   -0.0368
C   63.7173   -0.4646   -0.0288
C   62.4684    0.4192   -0.0360
C   61.2188   -0.4638   -0.0278
C   59.9699    0.4200   -0.0350
C   58.7204   -0.4630   -0.0269
C   57.4714    0.4208   -0.0341
C   56.2219   -0.4622   -0.0259
C   54.9729    0.4216   -0.0331
C   53.7234   -0.4614   -0.0250
C   52.4744    0.4224   -0.0322
C   51.2249   -0.4606   -0.0241
C   49.9760    0.4232   -0.0313
C   48.7264   -0.4598   -0.0231
C   47.4775    0.4240   -0.0303
C   46.2280   -0.4590   -0.0222
C   44.9790    0.4248   -0.0294
C   43.7295   -0.4582   -0.0212
C   42.4805    0.4256   -0.0284
C   41.2310   -0.4574   -0.0203
C   39.9820    0.4264   -0.0275
C   38.7325   -0.4566   -0.0194
C   37.4836    0.4272   -0.0265
C   36.2341   -0.4558   -0.0184
C   34.9851    0.4280   -0.0256
C   33.7356   -0.4550   -0.0175
C   32.4866    0.4288   -0.0247
C   31.2371   -0.4542   -0.0165
C   29.9881    0.4296   -0.0237
C   28.7386   -0.4534   -0.0156
C   27.4897    0.4304   -0.0228
C   26.2401   -0.4526   -0.0146
C   24.9912    0.4312   -0.0218
C   23.7417   -0.4518   -0.0137
C   22.4927    0.4320   -0.0209
C   21.2432   -0.4510   -0.0128
C   19.9942    0.4328   -0.0200
C   18.7447   -0.4502   -0.0118
C   17.4957    0.4336   -0.0190
C   16.2462   -0.4494   -0.0109
C   14.9973    0.4344   -0.0181
C   13.7477   -0.4486   -0.0099
C   12.4988    0.4352   -0.0171
C   11.2493   -0.4478   -0.0090
C   10.0003    0.4360   -0.0162
C    8.7508   -0.4470   -0.0080
C    7.5018    0.4368   -0.0152
C    6.2523   -0.4462   -0.0071
C    5.0033    0.4376   -0.0143
C    3.7538   -0.4454   -0.0062
C    2.5049    0.4384   -0.0134
C    1.2553   -0.4446   -0.0052
C    0.0064    0.4392   -0.0124
C   -1.2431   -0.4438   -0.0043
C   -2.4921    0.4400   -0.0115
C   -3.7416   -0.4430   -0.0033
C   -4.9906    0.4407   -0.0105
C   -6.2401   -0.4422   -0.0024
C   -7.4891    0.4415   -0.0096
C   -8.7386   -0.4414   -0.0015
C   -9.9875    0.4423   -0.0087
C  -11.2371   -0.4406   -0.0005
C  -12.4860    0.4431   -0.0077
C  -13.7355   -0.4398    0.0004
C  -14.9845    0.4439   -0.0068
C  -16.2340   -0.4390    0.0014
C  -17.4830    0.4447   -0.0058
C  -18.7325   -0.4382    0.0023
C  -19.9815    0.4455   -0.0049
C  -21.2310   -0.4374    0.0033
C  -22.4799    0.4463   -0.0039
C  -23.7294   -0.4366    0.0042
C  -24.9784    0.4471   -0.0030
C  -26.2279   -0.4358    0.0051
C  -27.4769    0.4479   -0.0021
C  -28.7264   -0.4350    0.0061
C  -29.9754    0.4487   -0.0011
C  -31.2249   -0.4342    0.0070
C  -32.4738    0.4495   -0.0002
C  -33.7234   -0.4334    0.0080
C  -34.9723    0.4503    0.0008
C  -36.2218   -0.4326    0.0089
C  -37.4708    0.4511    0.0017
C  -38.7203   -0.4318    0.0098
C  -39.9693    0.4519    0.0026
C  -41.2188   -0.4310    0.0108
C  -42.4678    0.4527    0.0036
C  -43.7173   -0.4302    0.0117
C  -44.9662    0.4535    0.0045
C  -46.2158   -0.4294    0.0127
C  -47.4647    0.4543    0.0055
C  -48.7142   -0.4286    0.0136
C  -49.9632    0.4551    0.0064
C  -51.2127   -0.4278    0.0146
C  -52.4617    0.4559    0.0074
C  -53.7112   -0.4270    0.0155
C  -54.9602    0.4567    0.0083
C  -56.2097   -0.4262    0.0164
C  -57.4586    0.4575    0.0092
C  -58.7082   -0.4254    0.0174
C  -59.9571    0.4583    0.0102
C  -61.2066   -0.4246    0.0183
C  -62.4556    0.4591    0.0111
C  -63.7051   -0.4238    0.0193
C  -64.9541    0.4599    0.0121
C  -66.2036   -0.4230    0.0202
O   65.7877    0.2711    0.8208
H   65.0813    1.1451   -0.8120
H   63.7168   -1.1016   -0.9133
H   63.7175   -1.0861    0.8666
H   62.4689    1.0562    0.8485
H   62.4682    1.0407   -0.9314
H   61.2183   -1.1008   -0.9123
H   61.2190   -1.0853    0.8676
H   59.9704    1.0570    0.8495
H   59.9697    1.0415   -0.9304
H   58.7198   -1.1000   -0.9114
H   58.7205   -1.0845    0.8685
H   57.4719    1.0578    0.8504
H   57.4713    1.0423   -0.9295
H   56.2213   -1.0992   -0.9104
H   56.2220   -1.0837    0.8695
H   54.9735    1.0586    0.8514
H   54.9728    1.0431   -0.9285
H   53.7229   -1.0984   -0.9095
H   53.7235   -1.0829    0.8704
H   52.4750    1.0594    0.8523
H   52.4743    1.0439   -0.9276
H   51.2244   -1.0976   -0.9085
H   51.2251   -1.0821    0.8713
H   49.9765    1.0602    0.8532
H   49.9758    1.0447   -0.9267
H   48.7259   -1.0968   -0.9076
H   48.7266   -1.0813    0.8723
H   47.4780    1.0610    0.8542
H   47.4773    1.0455   -0.9257
H   46.2274   -1.0960   -0.9067
H   46.2281   -1.0805    0.8732
H   44.9795    1.0618    0.8551
H   44.9789    1.0463   -0.9248
H   43.7290   -1.0952   -0.9057
H   43.7296   -1.0797    0.8742
H   42.4811    1.0626    0.8561
H   42.4804    1.0471   -0.9238
H   41.2305   -1.0944   -0.9048
H   41.2311   -1.0789    0.8751
H   39.9826    1.0634    0.8570
H   39.9819    1.0479   -0.9229
H   38.7320   -1.0936   -0.9038
H   38.7327   -1.0781    0.8761
H   37.4841    1.0642    0.8579
H   37.4834    1.0487   -0.9220
H   36.2335   -1.0928   -0.9029
H   36.2342   -1.0773    0.8770
H   34.9856    1.0650    0.8589
H   34.9850    1.0495   -0.9210
H   33.7350   -1.0920   -0.9020
H   33.7357   -1.0765    0.8779
H   32.4871    1.0658    0.8598
H   32.4865    1.0503   -0.9201
H   31.2366   -1.0912   -0.9010
H   31.2372   -1.0757    0.8789
H   29.9887    1.0666    0.8608
H   29.9880    1.0511   -0.9191
H   28.7381   -1.0904   -0.9001
H   28.7388   -1.0749    0.8798
H   27.4902    1.0674    0.8617
H   27.4895    1.0519   -0.9182
H   26.2396   -1.0896   -0.8991
H   26.2403   -1.0741    0.8808
H   24.9917    1.0682    0.8627
H   24.9910    1.0527   -0.9172
H   23.7411   -1.0888   -0.8982
H   23.7418   -1.0733    0.8817
H   22.4932    1.0690    0.8636
H   22.4926    1.0535   -0.9163
H   21.2426   -1.0880   -0.8972
H   21.2433   -1.0725    0.8827
H   19.9948    1.0698    0.8645
H   19.9941    1.0543   -0.9154
H   18.7442   -1.0872   -0.8963
H   18.7448   -1.0717    0.8836
H   17.4963    1.0706    0.8655
H   17.4956    1.0551   -0.9144
H   16.2457   -1.0864   -0.8954
H   16.2464   -1.0709    0.8845
H   14.9978    1.0714    0.8664
H   14.9971    1.0559   -0.9135
H   13.7472   -1.0856   -0.8944
H   13.7479   -1.0701    0.8855
H   12.4993    1.0722    0.8674
H   12.4986    1.0567   -0.9125
H   11.2487   -1.0848   -0.8935
H   11.2494   -1.0693    0.8864
H   10.0008    1.0730    0.8683
H   10.0002    1.0575   -0.9116
H    8.7502   -1.0840   -0.8925
H    8.7509   -1.0685    0.8874
H    7.5024    1.0738    0.8692
H    7.5017    1.0583   -0.9107
H    6.2518   -1.0832   -0.8916
H    6.2524   -1.0677    0.8883
H    5.0039    1.0746    0.8702
H    5.0032    1.0591   -0.9097
H    3.7533   -1.0824   -0.8907
H    3.7540   -1.0669    0.8892
H    2.5054    1.0754    0.8711
H    2.5047    1.0599   -0.9088
H    1.2548   -1.0816   -0.8897
H    1.2555   -1.0661    0.8902
H    0.0069    1.0762    0.8721
H    0.0062    1.0607   -0.9078
H   -1.2437   -1.0808   -0.8888
H   -1.2430   -1.0653    0.8911
H   -2.4916    1.0770    0.8730
H   -2.4922    1.0615   -0.9069
H   -3.7422   -1.0800   -0.8878
H   -3.7415   -1.0645    0.8921
H   -4.9900    1.0778    0.8739
H   -4.9907    1.0623   -0.9059
H   -6.2406   -1.0792   -0.8869
H   -6.2400   -1.0637    0.8930
H   -7.4885    1.0786    0.8749
H   -7.4892    1.0631   -0.9050
H   -8.7391   -1.0784   -0.8859
H   -8.7384   -1.0629    0.8940
H   -9.9870    1.0794    0.8758
H   -9.9877    1.0639   -0.9041
H  -11.2376   -1.0776   -0.8850
H  -11.2369   -1.0621    0.8949
H  -12.4855    1.0802    0.8768
H  -12.4862    1.0647   -0.9031
H  -13.7361   -1.0768   -0.8841
H  -13.7354   -1.0613    0.8958
H  -14.9840    1.0810    0.8777
H  -14.9846    1.0655   -0.9022
H  -16.2345   -1.0760   -0.8831
H  -16.2339   -1.0605    0.8968
H  -17.4824    1.0818    0.8787
H  -17.4831    1.0663   -0.9012
H  -18.7330   -1.0752   -0.8822
H  -18.7324   -1.0597    0.8977
H  -19.9809    1.0826    0.8796
H  -19.9816    1.0671   -0.9003
H  -21.2315   -1.0744   -0.8812
H  -21.2308   -1.0589    0.8987
H  -22.4794    1.0834    0.8805
H  -22.4801    1.0679   -0.8994
H  -23.7300   -1.0736   -0.8803
H  -23.7293   -1.0581    0.8996
H  -24.9779    1.0842    0.8815
H  -24.9785    1.0687   -0.8984
H  -26.2285   -1.0728   -0.8793
H  -26.2278   -1.0573    0.9005
H  -27.4764    1.0850    0.8824
H  -27.4770    1.0695   -0.8975
H  -28.7269   -1.0720   -0.8784
H  -28.7263   -1.0565    0.9015
H  -29.9748    1.0858    0.8834
H  -29.9755    1.0703   -0.8965
H  -31.2254   -1.0712   -0.8775
H  -31.2247   -1.0557    0.9024
H  -32.4733    1.0866    0.8843
H  -32.4740    1.0711   -0.8956
H  -33.7239   -1.0704   -0.8765
H  -33.7232   -1.0549    0.9034
H  -34.9718    1.0874    0.8852
H  -34.9725    1.0719   -0.8946
H  -36.2224   -1.0696   -0.8756
H  -36.2217   -1.0541    0.9043
H  -37.4703    1.0882    0.8862
H  -37.4709    1.0727   -0.8937
H  -38.7209   -1.0688   -0.8746
H  -38.7202   -1.0533    0.9053
H  -39.9687    1.0890    0.8871
H  -39.9694    1.0735   -0.8928
H  -41.2193   -1.0680   -0.8737
H  -41.2187   -1.0525    0.9062
H  -42.4672    1.0898    0.8881
H  -42.4679    1.0743   -0.8918
H  -43.7178   -1.0672   -0.8728
H  -43.7171   -1.0517    0.9071
H  -44.9657    1.0906    0.8890
H  -44.9664    1.0751   -0.8909
H  -46.2163   -1.0664   -0.8718
H  -46.2156   -1.0509    0.9081
H  -47.4642    1.0914    0.8900
H  -47.4649    1.0759   -0.8899
H  -48.7148   -1.0656   -0.8709
H  -48.7141   -1.0501    0.9090
H  -49.9627    1.0922    0.8909
H  -49.9633    1.0767   -0.8890
H  -51.2133   -1.0648   -0.8699
H  -51.2126   -1.0493    0.9100
H  -52.4611    1.0930    0.8918
H  -52.4618    1.0775   -0.8881
H  -53.7117   -1.0640   -0.8690
H  -53.7111   -1.0485    0.9109
H  -54.9596    1.0938    0.8928
H  -54.9603    1.0783   -0.8871
H  -56.2102   -1.0632   -0.8680
H  -56.2095   -1.0477    0.9118
H  -57.4581    1.0946    0.8937
H  -57.4588    1.0791   -0.8862
H  -58.7087   -1.0624   -0.8671
H  -58.7080   -1.0469    0.9128
H  -59.9566    1.0954    0.8947
H  -59.9573    1.0799   -0.8852
H  -61.2072   -1.0616   -0.8662
H  -61.2065   -1.0461    0.9137
H  -62.4551    1.0962    0.8956
H  -62.4557    1.0807   -0.8843
H  -63.7057   -1.0608   -0.8652
H  -63.7050   -1.0453    0.9147
H  -64.9535    1.0970    0.8965
H  -64.9542    1.0815   -0.8833
H  -66.2035   -1.0445    0.9156
H  -67.0934    0.2066    0.0151
H  -66.2041   -1.0600   -0.8643
