202
C67H134O
C   40.5903    0.4060   -0.0570
C   39.3597   -0.4637   -0.0436
C   38.1106    0.4199   -0.0549
C   36.8612   -0.4630   -0.0413
C   35.6122    0.4206   -0.0526
C   34.3627   -0.4623   -0.0390
C   33.1137    0.4213   -0.0503
C   31.8642   -0.4616   -0.0367
C   30.6152    0.4220   -0.0480
C   29.3657   -0.4610   -0.0344
C   28.1167    0.4226   -0.0456
C   26.8673   -0.4603   -0.0321
C   25.6183    0.4233   -0.0433
C   24.3688   -0.4596   -0.0297
C   23.1198    0.4240   -0.0410
C   21.8703   -0.4589   -0.0274
C   20.6213    0.4246   -0.0387
C   19.3718   -0.4583   -0.0251
C   18.1228    0.4253   -0.0364
C   16.8734   -0.4576   -0.0228
C   15.6243    0.4260   -0.0341
C   14.3749   -0.4569   -0.0205
C   13.1259    0.4267   -0.0317
C   11.8764   -0.4563   -0.0182
C   10.6274    0.4273   -0.0294
C    9.3779   -0.4556   -0.0159
C    8.1289    0.4280   -0.0271
C    6.8794   -0.4549   -0.0135
C    5.6304    0.4287   -0.0248
C    4.3810   -0.4542   -0.0112
C    3.1319    0.4294   -0.0225
C    1.8825   -0.4536   -0.0089
C    0.6335    0.4300   -0.0202
C   -0.6160   -0.4529   -0.0066
C   -1.8650    0.4307   -0.0179
C   -3.1145   -0.4522   -0.0043
C   -4.3635    0.4314   -0.0155
C   -5.6130   -0.4515   -0.0020
C   -6.8620    0.4321   -0.0132
C   -8.1114   -0.4509    0.0004
C   -9.3604    0.4327   -0.0109
C  -10.6099   -0.4502    0.0027
C  -11.8589    0.4334   -0.0086
C  -13.1084   -0.4495    0.0050
C  -14.3574    0.4341   -0.0063
C  -15.6069   -0.4488    0.0073
C  -16.8559    0.4348   -0.0040
C  -18.1053   -0.4482    0.0096
C  -19.3544    0.4354   -0.0016
C  -20.6038   -0.4475    0.0119
C  -21.8528    0.4361    0.0007
C  -23.1023   -0.4468    0.0143
C  -24.3513    0.4368    0.0030
C  -25.6008   -0.4461    0.0166
C  -26.8498    0.4374    0.0053
C  -28.0993   -0.4455    0.0189
C  -29.3483    0.4381    0.0076
C  -30.5977   -0.4448    0.0212
C  -31.8467    0.4388    0.0099
C  -33.0962   -0.4441    0.0235
C  -34.3452    0.4395    0.0122
C  -35.5947   -0.4435    0.0258
C  -36.8437    0.4401    0.0146
C  -38.0932   -0.4428    0.0281
C  -39.3422    0.4408    0.0169
C  -40.5916   -0.4421    0.0305
C  -41.8407    0.4415    0.0192
O   41.4304    0.2766    0.8008
H   40.7231    1.1418   -0.8363
H   39.3587   -1.1054   -0.9247
H   39.3603   -1.0804    0.8551
H   38.1116    1.0617    0.8261
H   38.1100    1.0367   -0.9536
H   36.8602   -1.1048   -0.9224
H   36.8618   -1.0797    0.8574
H   35.6132    1.0624    0.8285
H   35.6115    1.0373   -0.9513
H   34.3617   -1.1041   -0.9201
H   34.3634   -1.0791    0.8597
H   33.1147    1.0630    0.8308
H   33.1130    1.0380   -0.9490
H   31.8632   -1.1034   -0.9177
H   31.8649   -1.0784    0.8621
H   30.6162    1.0637    0.8331
H   30.6145    1.0387   -0.9467
H   29.3648   -1.1027   -0.9154
H   29.3664   -1.0777    0.8644
H   28.1177    1.0644    0.8354
H   28.1161    1.0394   -0.9444
H   26.8663   -1.1021   -0.9131
H   26.8679   -1.0770    0.8667
H   25.6192    1.0651    0.8377
H   25.6176    1.0400   -0.9421
H   24.3678   -1.1014   -0.9108
H   24.3695   -1.0764    0.8690
H   23.1208    1.0657    0.8400
H   23.1191    1.0407   -0.9398
H   21.8693   -1.1007   -0.9085
H   21.8710   -1.0757    0.8713
H   20.6223    1.0664    0.8423
H   20.6206    1.0414   -0.9374
H   19.3708   -1.1000   -0.9062
H   19.3725   -1.0750    0.8736
H   18.1238    1.0671    0.8447
H   18.1222    1.0421   -0.9351
H   16.8724   -1.0994   -0.9038
H   16.8740   -1.0743    0.8759
H   15.6253    1.0678    0.8470
H   15.6237    1.0427   -0.9328
H   14.3739   -1.0987   -0.9015
H   14.3755   -1.0737    0.8783
H   13.1269    1.0684    0.8493
H   13.1252    1.0434   -0.9305
H   11.8754   -1.0980   -0.8992
H   11.8771   -1.0730    0.8806
H   10.6284    1.0691    0.8516
H   10.6267    1.0441   -0.9282
H    9.3769   -1.0973   -0.8969
H    9.3786   -1.0723    0.8829
H    8.1299    1.0698    0.8539
H    8.1282    1.0447   -0.9259
H    6.8784   -1.0967   -0.8946
H    6.8801   -1.0716    0.8852
H    5.6314    1.0705    0.8562
H    5.6298    1.0454   -0.9235
H    4.3800   -1.0960   -0.8923
H    4.3816   -1.0710    0.8875
H    3.1329    1.0711    0.8586
H    3.1313    1.0461   -0.9212
H    1.8815   -1.0953   -0.8899
H    1.8831   -1.0703    0.8898
H    0.6345    1.0718    0.8609
H    0.6328    1.0468   -0.9189
H   -0.6170   -1.0947   -0.8876
H   -0.6153   -1.0696    0.8922
H   -1.8640    1.0725    0.8632
H   -1.8657    1.0474   -0.9166
H   -3.1155   -1.0940   -0.8853
H   -3.1138   -1.0689    0.8945
H   -4.3625    1.0732    0.8655
H   -4.3642    1.0481   -0.9143
H   -5.6139   -1.0933   -0.8830
H   -5.6123   -1.0683    0.8968
H   -6.8610    1.0738    0.8678
H   -6.8626    1.0488   -0.9120
H   -8.1124   -1.0926   -0.8807
H   -8.1108   -1.0676    0.8991
H   -9.3595    1.0745    0.8701
H   -9.3611    1.0495   -0.9097
H  -10.6109   -1.0920   -0.8784
H  -10.6092   -1.0669    0.9014
H  -11.8579    1.0752    0.8724
H  -11.8596    1.0501   -0.9073
H  -13.1094   -1.0913   -0.8761
H  -13.1077   -1.0662    0.9037
H  -14.3564    1.0758    0.8748
H  -14.3581    1.0508   -0.9050
H  -15.6079   -1.0906   -0.8737
H  -15.6062   -1.0656    0.9061
H  -16.8549    1.0765    0.8771
H  -16.8565    1.0515   -0.9027
H  -18.1063   -1.0899   -0.8714
H  -18.1047   -1.0649    0.9084
H  -19.3534    1.0772    0.8794
H  -19.3550    1.0522   -0.9004
H  -20.6048   -1.0893   -0.8691
H  -20.6032   -1.0642    0.9107
H  -21.8518    1.0779    0.8817
H  -21.8535    1.0528   -0.8981
H  -23.1033   -1.0886   -0.8668
H  -23.1016   -1.0636    0.9130
H  -24.3503    1.0785    0.8840
H  -24.3520    1.0535   -0.8958
H  -25.6018   -1.0879   -0.8645
H  -25.6001   -1.0629    0.9153
H  -26.8488    1.0792    0.8863
H  -26.8505    1.0542   -0.8934
H  -28.1002   -1.0872   -0.8622
H  -28.0986   -1.0622    0.9176
H  -29.3473    1.0799    0.8887
H  -29.3489    1.0549   -0.8911
H  -30.5987   -1.0866   -0.8598
H  -30.5971   -1.0615    0.9199
H  -31.8458    1.0806    0.8910
H  -31.8474    1.0555   -0.8888
H  -33.0972   -1.0859   -0.8575
H  -33.0955   -1.0609    0.9223
H  -34.3442    1.0812    0.8933
H  -34.3459    1.0562   -0.8865
H  -35.5957   -1.0852   -0.8552
H  -35.5940   -1.0602    0.9246
H  -36.8427    1.0819    0.8956
H  -36.8444    1.0569   -0.8842
H  -38.0942   -1.0845   -0.8529
H  -38.0925   -1.0595    0.9269
H  -39.3412    1.0826    0.8979
H  -39.3428    1.0575   -0.8819
H  -40.5926   -1.0839   -0.8506
H  -40.5910   -1.0588    0.9292
H  -41.8397    1.0833    0.9002
H  -41.8413    1.0582   -0.8796
H  -42.7308   -0.1875    0.0289
