289
C96H192O
C   58.7023    0.4028   -0.0404
C   57.4715   -0.4668   -0.0316
C   56.2226    0.4170   -0.0394
C   54.9731   -0.4658   -0.0304
C   53.7242    0.4180   -0.0382
C   52.4746   -0.4649   -0.0293
C   51.2257    0.4189   -0.0371
C   49.9761   -0.4639   -0.0281
C   48.7272    0.4199   -0.0360
C   47.4776   -0.4629   -0.0270
C   46.2287    0.4209   -0.0348
C   44.9791   -0.4619   -0.0258
C   43.7302    0.4219   -0.0337
C   42.4807   -0.4610   -0.0247
C   41.2318    0.4228   -0.0325
C   39.9822   -0.4600   -0.0236
C   38.7333    0.4238   -0.0314
C   37.4837   -0.4590   -0.0224
C   36.2348    0.4248   -0.0302
C   34.9852   -0.4580   -0.0213
C   33.7363    0.4257   -0.0291
C   32.4867   -0.4571   -0.0201
C   31.2379    0.4267   -0.0280
C   29.9883   -0.4561   -0.0190
C   28.7394    0.4277   -0.0268
C   27.4898   -0.4551   -0.0178
C   26.2409    0.4287   -0.0257
C   24.9913   -0.4542   -0.0167
C   23.7424    0.4296   -0.0245
C   22.4928   -0.4532   -0.0156
C   21.2439    0.4306   -0.0234
C   19.9944   -0.4522   -0.0144
C   18.7455    0.4316   -0.0222
C   17.4959   -0.4512   -0.0133
C   16.2470    0.4326   -0.0211
C   14.9974   -0.4503   -0.0121
C   13.7485    0.4335   -0.0200
C   12.4989   -0.4493   -0.0110
C   11.2500    0.4345   -0.0188
C   10.0004   -0.4483   -0.0098
C    8.7515    0.4355   -0.0177
C    7.5020   -0.4473   -0.0087
C    6.2531    0.4364   -0.0165
C    5.0035   -0.4464   -0.0076
C    3.7546    0.4374   -0.0154
C    2.5050   -0.4454   -0.0064
C    1.2561    0.4384   -0.0142
C    0.0065   -0.4444   -0.0053
C   -1.2424    0.4394   -0.0131
C   -2.4920   -0.4435   -0.0041
C   -3.7409    0.4403   -0.0120
C   -4.9904   -0.4425   -0.0030
C   -6.2393    0.4413   -0.0108
C   -7.4889   -0.4415   -0.0018
C   -8.7378    0.4423   -0.0097
C   -9.9874   -0.4405   -0.0007
C  -11.2363    0.4433   -0.0085
C  -12.4859   -0.4396    0.0004
C  -13.7348    0.4442   -0.0074
C  -14.9844   -0.4386    0.0016
C  -16.2333    0.4452   -0.0062
C  -17.4828   -0.4376    0.0027
C  -18.7317    0.4462   -0.0051
C  -19.9813   -0.4366    0.0039
C  -21.2302    0.4471   -0.0040
C  -22.4798   -0.4357    0.0050
C  -23.7287    0.4481   -0.0028
C  -24.9783   -0.4347    0.0062
C  -26.2272    0.4491   -0.0017
C  -27.4767   -0.4337    0.0073
C  -28.7256    0.4501   -0.0005
C  -29.9752   -0.4328    0.0084
C  -31.2241    0.4510    0.0006
C  -32.4737   -0.4318    0.0096
C  -33.7226    0.4520    0.0018
C  -34.9722   -0.4308    0.0107
C  -36.2211    0.4530    0.0029
C  -37.4707   -0.4298    0.0119
C  -38.7196    0.4540    0.0040
C  -39.9691   -0.4289    0.0130
C  -41.2180    0.4549    0.0052
C  -42.4676   -0.4279    0.0142
C  -43.7165    0.4559    0.0063
C  -44.9661   -0.4269    0.0153
C  -46.2150    0.4569    0.0075
C  -47.4646   -0.4259    0.0164
C  -48.7135    0.4578    0.0086
C  -49.9631   -0.4250    0.0176
C  -51.2120    0.4588    0.0098
C  -52.4615   -0.4240    0.0187
C  -53.7104    0.4598    0.0109
C  -54.9600   -0.4230    0.0199
C  -56.2089    0.4608    0.0120
C  -57.4585   -0.4221    0.0210
C  -58.7074    0.4617    0.0132
C  -59.9570   -0.4211    0.0222
O   59.5420    0.2694    0.8172
H   58.8356    1.1421   -0.8162
H   57.4709   -1.1045   -0.9155
H   57.4717   -1.0876    0.8644
H   56.2233    1.0547    0.8446
H   56.2225    1.0378   -0.9353
H   54.9724   -1.1036   -0.9144
H   54.9732   -1.0866    0.8655
H   53.7248    1.0557    0.8457
H   53.7240    1.0388   -0.9342
H   52.4739   -1.1026   -0.9132
H   52.4748   -1.0857    0.8667
H   51.2263    1.0567    0.8469
H   51.2255    1.0398   -0.9330
H   49.9754   -1.1016   -0.9121
H   49.9763   -1.0847    0.8678
H   48.7279    1.0577    0.8480
H   48.7270    1.0407   -0.9319
H   47.4770   -1.1006   -0.9109
H   47.4778   -1.0837    0.8689
H   46.2294    1.0586    0.8491
H   46.2286    1.0417   -0.9307
H   44.9785   -1.0997   -0.9098
H   44.9793   -1.0828    0.8701
H   43.7309    1.0596    0.8503
H   43.7301    1.0427   -0.9296
H   42.4800   -1.0987   -0.9087
H   42.4808   -1.0818    0.8712
H   41.2324    1.0606    0.8514
H   41.2316    1.0437   -0.9284
H   39.9815   -1.0977   -0.9075
H   39.9824   -1.0808    0.8724
H   38.7339    1.0615    0.8526
H   38.7331    1.0446   -0.9273
H   37.4831   -1.0968   -0.9064
H   37.4839   -1.0798    0.8735
H   36.2355    1.0625    0.8537
H   36.2346    1.0456   -0.9262
H   34.9846   -1.0958   -0.9052
H   34.9854   -1.0789    0.8747
H   33.7370    1.0635    0.8549
H   33.7362    1.0466   -0.9250
H   32.4861   -1.0948   -0.9041
H   32.4869   -1.0779    0.8758
H   31.2385    1.0645    0.8560
H   31.2377    1.0475   -0.9239
H   29.9876   -1.0938   -0.9029
H   29.9884   -1.0769    0.8769
H   28.7400    1.0654    0.8571
H   28.7392    1.0485   -0.9227
H   27.4891   -1.0929   -0.9018
H   27.4900   -1.0759    0.8781
H   26.2415    1.0664    0.8583
H   26.2407    1.0495   -0.9216
H   24.9907   -1.0919   -0.9007
H   24.9915   -1.0750    0.8792
H   23.7431    1.0674    0.8594
H   23.7422    1.0505   -0.9204
H   22.4922   -1.0909   -0.8995
H   22.4930   -1.0740    0.8804
H   21.2446    1.0684    0.8606
H   21.2438    1.0514   -0.9193
H   19.9937   -1.0900   -0.8984
H   19.9945   -1.0730    0.8815
H   18.7461    1.0693    0.8617
H   18.7453    1.0524   -0.9182
H   17.4952   -1.0890   -0.8972
H   17.4960   -1.0721    0.8827
H   16.2476    1.0703    0.8629
H   16.2468    1.0534   -0.9170
H   14.9967   -1.0880   -0.8961
H   14.9976   -1.0711    0.8838
H   13.7491    1.0713    0.8640
H   13.7483    1.0544   -0.9159
H   12.4983   -1.0870   -0.8949
H   12.4991   -1.0701    0.8849
H   11.2507    1.0722    0.8651
H   11.2498    1.0553   -0.9147
H    9.9998   -1.0861   -0.8938
H   10.0006   -1.0691    0.8861
H    8.7522    1.0732    0.8663
H    8.7514    1.0563   -0.9136
H    7.5013   -1.0851   -0.8927
H    7.5021   -1.0682    0.8872
H    6.2537    1.0742    0.8674
H    6.2529    1.0573   -0.9125
H    5.0028   -1.0841   -0.8915
H    5.0036   -1.0672    0.8884
H    3.7552    1.0752    0.8686
H    3.7544    1.0582   -0.9113
H    2.5043   -1.0831   -0.8904
H    2.5052   -1.0662    0.8895
H    1.2568    1.0761    0.8697
H    1.2559    1.0592   -0.9102
H    0.0059   -1.0822   -0.8892
H    0.0067   -1.0652    0.8907
H   -1.2417    1.0771    0.8709
H   -1.2425    1.0602   -0.9090
H   -2.4926   -1.0812   -0.8881
H   -2.4918   -1.0643    0.8918
H   -3.7402    1.0781    0.8720
H   -3.7410    1.0612   -0.9079
H   -4.9911   -1.0802   -0.8869
H   -4.9903   -1.0633    0.8929
H   -6.2387    1.0791    0.8731
H   -6.2395    1.0621   -0.9067
H   -7.4896   -1.0793   -0.8858
H   -7.4887   -1.0623    0.8941
H   -8.7372    1.0800    0.8743
H   -8.7380    1.0631   -0.9056
H   -9.9880   -1.0783   -0.8847
H   -9.9872   -1.0614    0.8952
H  -11.2356    1.0810    0.8754
H  -11.2365    1.0641   -0.9045
H  -12.4865   -1.0773   -0.8835
H  -12.4857   -1.0604    0.8964
H  -13.7341    1.0820    0.8766
H  -13.7349    1.0651   -0.9033
H  -14.9850   -1.0763   -0.8824
H  -14.9842   -1.0594    0.8975
H  -16.2326    1.0829    0.8777
H  -16.2334    1.0660   -0.9022
H  -17.4835   -1.0754   -0.8812
H  -17.4827   -1.0584    0.8987
H  -18.7311    1.0839    0.8789
H  -18.7319    1.0670   -0.9010
H  -19.9820   -1.0744   -0.8801
H  -19.9811   -1.0575    0.8998
H  -21.2296    1.0849    0.8800
H  -21.2304    1.0680   -0.8999
H  -22.4804   -1.0734   -0.8789
H  -22.4796   -1.0565    0.9009
H  -23.7280    1.0859    0.8811
H  -23.7289    1.0689   -0.8987
H  -24.9789   -1.0724   -0.8778
H  -24.9781   -1.0555    0.9021
H  -26.2265    1.0868    0.8823
H  -26.2273    1.0699   -0.8976
H  -27.4774   -1.0715   -0.8767
H  -27.4766   -1.0545    0.9032
H  -28.7250    1.0878    0.8834
H  -28.7258    1.0709   -0.8965
H  -29.9759   -1.0705   -0.8755
H  -29.9751   -1.0536    0.9044
H  -31.2235    1.0888    0.8846
H  -31.2243    1.0719   -0.8953
H  -32.4744   -1.0695   -0.8744
H  -32.4735   -1.0526    0.9055
H  -33.7220    1.0898    0.8857
H  -33.7228    1.0728   -0.8942
H  -34.9728   -1.0686   -0.8732
H  -34.9720   -1.0516    0.9067
H  -36.2204    1.0907    0.8869
H  -36.2213    1.0738   -0.8930
H  -37.4713   -1.0676   -0.8721
H  -37.4705   -1.0507    0.9078
H  -38.7189    1.0917    0.8880
H  -38.7197    1.0748   -0.8919
H  -39.9698   -1.0666   -0.8709
H  -39.9690   -1.0497    0.9089
H  -41.2174    1.0927    0.8891
H  -41.2182    1.0757   -0.8907
H  -42.4683   -1.0656   -0.8698
H  -42.4675   -1.0487    0.9101
H  -43.7159    1.0937    0.8903
H  -43.7167    1.0767   -0.8896
H  -44.9668   -1.0647   -0.8687
H  -44.9659   -1.0477    0.9112
H  -46.2143    1.0946    0.8914
H  -46.2152    1.0777   -0.8885
H  -47.4652   -1.0637   -0.8675
H  -47.4644   -1.0468    0.9124
H  -48.7128    1.0956    0.8926
H  -48.7136    1.0787   -0.8873
H  -49.9637   -1.0627   -0.8664
H  -49.9629   -1.0458    0.9135
H  -51.2113    1.0966    0.8937
H  -51.2121    1.0796   -0.8862
H  -52.4622   -1.0617   -0.8652
H  -52.4614   -1.0448    0.9147
H  -53.7098    1.0975    0.8949
H  -53.7106    1.0806   -0.8850
H  -54.9607   -1.0608   -0.8641
H  -54.9598   -1.0438    0.9158
H  -56.2083    1.0985    0.8960
H  -56.2091    1.0816   -0.8839
H  -57.4591   -1.0598   -0.8629
H  -57.4583   -1.0429    0.9169
H  -58.7067    1.0995    0.8971
H  -58.7076    1.0826   -0.8827
H  -59.9576   -1.0588   -0.8618
H  -59.9568   -1.0419    0.9181
H  -60.8467    0.2085    0.0166
