184
C61H122O
C   36.8433    0.4039   -0.0622
C   35.6126   -0.4657   -0.0474
C   34.3636    0.4179   -0.0596
C   33.1141   -0.4649   -0.0447
C   31.8651    0.4187   -0.0569
C   30.6156   -0.4641   -0.0419
C   29.3666    0.4196   -0.0541
C   28.1171   -0.4633   -0.0391
C   26.8682    0.4204   -0.0513
C   25.6187   -0.4625   -0.0363
C   24.3697    0.4212   -0.0485
C   23.1202   -0.4617   -0.0336
C   21.8712    0.4220   -0.0457
C   20.6217   -0.4609   -0.0308
C   19.3727    0.4228   -0.0430
C   18.1232   -0.4600   -0.0280
C   16.8743    0.4236   -0.0402
C   15.6247   -0.4592   -0.0252
C   14.3758    0.4244   -0.0374
C   13.1263   -0.4584   -0.0224
C   11.8773    0.4252   -0.0346
C   10.6278   -0.4576   -0.0197
C    9.3788    0.4260   -0.0319
C    8.1293   -0.4568   -0.0169
C    6.8803    0.4268   -0.0291
C    5.6308   -0.4560   -0.0141
C    4.3819    0.4277   -0.0263
C    3.1324   -0.4552   -0.0113
C    1.8834    0.4285   -0.0235
C    0.6339   -0.4544   -0.0086
C   -0.6151    0.4293   -0.0208
C   -1.8646   -0.4536   -0.0058
C   -3.1136    0.4301   -0.0180
C   -4.3631   -0.4528   -0.0030
C   -5.6120    0.4309   -0.0152
C   -6.8616   -0.4519   -0.0002
C   -8.1105    0.4317   -0.0124
C   -9.3600   -0.4511    0.0025
C  -10.6090    0.4325   -0.0096
C  -11.8585   -0.4503    0.0053
C  -13.1075    0.4333   -0.0069
C  -14.3570   -0.4495    0.0081
C  -15.6060    0.4341   -0.0041
C  -16.8555   -0.4487    0.0109
C  -18.1044    0.4349   -0.0013
C  -19.3539   -0.4479    0.0137
C  -20.6029    0.4358    0.0015
C  -21.8524   -0.4471    0.0164
C  -23.1014    0.4366    0.0042
C  -24.3509   -0.4463    0.0192
C  -25.5999    0.4374    0.0070
C  -26.8494   -0.4455    0.0220
C  -28.0983    0.4382    0.0098
C  -29.3479   -0.4446    0.0248
C  -30.5968    0.4390    0.0126
C  -31.8463   -0.4438    0.0275
C  -33.0953    0.4398    0.0153
C  -34.3448   -0.4430    0.0303
C  -35.5938    0.4406    0.0181
C  -36.8433   -0.4422    0.0331
C  -38.0923    0.4414    0.0209
O   37.6835    0.2756    0.7956
H   36.9760    1.1387   -0.8424
H   35.6114   -1.1086   -0.9276
H   35.6134   -1.0813    0.8521
H   34.3648    1.0608    0.8206
H   34.3628    1.0335   -0.9592
H   33.1129   -1.1078   -0.9249
H   33.1149   -1.0805    0.8549
H   31.8663    1.0617    0.8233
H   31.8643    1.0343   -0.9564
H   30.6144   -1.1070   -0.9221
H   30.6164   -1.0797    0.8577
H   29.3678    1.0625    0.8261
H   29.3658    1.0351   -0.9536
H   28.1159   -1.1062   -0.9193
H   28.1179   -1.0788    0.8604
H   26.8694    1.0633    0.8289
H   26.8674    1.0359   -0.9508
H   25.6175   -1.1054   -0.9165
H   25.6195   -1.0780    0.8632
H   24.3709    1.0641    0.8317
H   24.3689    1.0367   -0.9481
H   23.1190   -1.1046   -0.9138
H   23.1210   -1.0772    0.8660
H   21.8724    1.0649    0.8345
H   21.8704    1.0375   -0.9453
H   20.6205   -1.1038   -0.9110
H   20.6225   -1.0764    0.8688
H   19.3739    1.0657    0.8372
H   19.3719    1.0384   -0.9425
H   18.1220   -1.1030   -0.9082
H   18.1240   -1.0756    0.8715
H   16.8754    1.0665    0.8400
H   16.8735    1.0392   -0.9397
H   15.6236   -1.1022   -0.9054
H   15.6255   -1.0748    0.8743
H   14.3770    1.0673    0.8428
H   14.3750    1.0400   -0.9370
H   13.1251   -1.1013   -0.9026
H   13.1271   -1.0740    0.8771
H   11.8785    1.0681    0.8456
H   11.8765    1.0408   -0.9342
H   10.6266   -1.1005   -0.8999
H   10.6286   -1.0732    0.8799
H    9.3800    1.0690    0.8483
H    9.3780    1.0416   -0.9314
H    8.1281   -1.0997   -0.8971
H    8.1301   -1.0724    0.8827
H    6.8815    1.0698    0.8511
H    6.8795    1.0424   -0.9286
H    5.6296   -1.0989   -0.8943
H    5.6316   -1.0715    0.8854
H    4.3831    1.0706    0.8539
H    4.3811    1.0432   -0.9259
H    3.1312   -1.0981   -0.8915
H    3.1332   -1.0707    0.8882
H    1.8846    1.0714    0.8567
H    1.8826    1.0440   -0.9231
H    0.6327   -1.0973   -0.8888
H    0.6347   -1.0699    0.8910
H   -0.6139    1.0722    0.8594
H   -0.6159    1.0448   -0.9203
H   -1.8658   -1.0965   -0.8860
H   -1.8638   -1.0691    0.8938
H   -3.1124    1.0730    0.8622
H   -3.1144    1.0456   -0.9175
H   -4.3643   -1.0957   -0.8832
H   -4.3623   -1.0683    0.8965
H   -5.6109    1.0738    0.8650
H   -5.6128    1.0465   -0.9147
H   -6.8627   -1.0949   -0.8804
H   -6.8608   -1.0675    0.8993
H   -8.1093    1.0746    0.8678
H   -8.1113    1.0473   -0.9120
H   -9.3612   -1.0940   -0.8777
H   -9.3592   -1.0667    0.9021
H  -10.6078    1.0754    0.8706
H  -10.6098    1.0481   -0.9092
H  -11.8597   -1.0932   -0.8749
H  -11.8577   -1.0659    0.9049
H  -13.1063    1.0762    0.8733
H  -13.1083    1.0489   -0.9064
H  -14.3582   -1.0924   -0.8721
H  -14.3562   -1.0651    0.9077
H  -15.6048    1.0771    0.8761
H  -15.6068    1.0497   -0.9036
H  -16.8567   -1.0916   -0.8693
H  -16.8547   -1.0643    0.9104
H  -18.1032    1.0779    0.8789
H  -18.1052    1.0505   -0.9009
H  -19.3551   -1.0908   -0.8665
H  -19.3531   -1.0634    0.9132
H  -20.6017    1.0787    0.8817
H  -20.6037    1.0513   -0.8981
H  -21.8536   -1.0900   -0.8638
H  -21.8516   -1.0626    0.9160
H  -23.1002    1.0795    0.8844
H  -23.1022    1.0521   -0.8953
H  -24.3521   -1.0892   -0.8610
H  -24.3501   -1.0618    0.9188
H  -25.5987    1.0803    0.8872
H  -25.6007    1.0529   -0.8925
H  -26.8506   -1.0884   -0.8582
H  -26.8486   -1.0610    0.9215
H  -28.0972    1.0811    0.8900
H  -28.0991    1.0537   -0.8898
H  -29.3490   -1.0876   -0.8554
H  -29.3471   -1.0602    0.9243
H  -30.5956    1.0819    0.8928
H  -30.5976    1.0546   -0.8870
H  -31.8475   -1.0868   -0.8527
H  -31.8455   -1.0594    0.9271
H  -33.0941    1.0827    0.8955
H  -33.0961    1.0554   -0.8842
H  -34.3460   -1.0859   -0.8499
H  -34.3440   -1.0586    0.9299
H  -35.5926    1.0835    0.8983
H  -35.5946    1.0562   -0.8814
H  -36.8445   -1.0851   -0.8471
H  -36.8425   -1.0578    0.9326
H  -38.0931    1.0570   -0.8786
H  -38.9824   -0.1875    0.0316
H  -38.0911    1.0844    0.9011
