271
C90H180O
C   54.9550    0.4011   -0.0429
C   53.7241   -0.4684   -0.0335
C   52.4753    0.4155   -0.0418
C   51.2256   -0.4673   -0.0322
C   49.9768    0.4166   -0.0405
C   48.7272   -0.4662   -0.0309
C   47.4783    0.4177   -0.0392
C   46.2287   -0.4651   -0.0296
C   44.9798    0.4188   -0.0379
C   43.7302   -0.4639   -0.0283
C   42.4813    0.4199   -0.0366
C   41.2317   -0.4628   -0.0270
C   39.9829    0.4210   -0.0353
C   38.7332   -0.4617   -0.0257
C   37.4844    0.4221   -0.0340
C   36.2348   -0.4606   -0.0244
C   34.9859    0.4232   -0.0327
C   33.7363   -0.4595   -0.0231
C   32.4874    0.4243   -0.0314
C   31.2378   -0.4584   -0.0218
C   29.9889    0.4254   -0.0301
C   28.7393   -0.4573   -0.0205
C   27.4905    0.4265   -0.0288
C   26.2408   -0.4562   -0.0192
C   24.9920    0.4276   -0.0275
C   23.7424   -0.4551   -0.0180
C   22.4935    0.4287   -0.0262
C   21.2439   -0.4540   -0.0167
C   19.9950    0.4299   -0.0249
C   18.7454   -0.4529   -0.0154
C   17.4966    0.4310   -0.0236
C   16.2469   -0.4518   -0.0141
C   14.9981    0.4321   -0.0223
C   13.7484   -0.4507   -0.0128
C   12.4996    0.4332   -0.0210
C   11.2500   -0.4496   -0.0115
C   10.0011    0.4343   -0.0197
C    8.7515   -0.4485   -0.0102
C    7.5026    0.4354   -0.0184
C    6.2530   -0.4474   -0.0089
C    5.0042    0.4365   -0.0171
C    3.7545   -0.4463   -0.0076
C    2.5057    0.4376   -0.0158
C    1.2561   -0.4452   -0.0063
C    0.0072    0.4387   -0.0145
C   -1.2424   -0.4441   -0.0050
C   -2.4913    0.4398   -0.0132
C   -3.7409   -0.4430   -0.0037
C   -4.9898    0.4409   -0.0120
C   -6.2394   -0.4418   -0.0024
C   -7.4882    0.4420   -0.0107
C   -8.7379   -0.4407   -0.0011
C   -9.9867    0.4431   -0.0094
C  -11.2363   -0.4396    0.0002
C  -12.4852    0.4442   -0.0081
C  -13.7348   -0.4385    0.0015
C  -14.9837    0.4453   -0.0068
C  -16.2333   -0.4374    0.0028
C  -17.4822    0.4464   -0.0055
C  -18.7318   -0.4363    0.0041
C  -19.9806    0.4475   -0.0042
C  -21.2303   -0.4352    0.0054
C  -22.4791    0.4486   -0.0029
C  -23.7287   -0.4341    0.0067
C  -24.9776    0.4497   -0.0016
C  -26.2272   -0.4330    0.0080
C  -27.4761    0.4508   -0.0003
C  -28.7257   -0.4319    0.0093
C  -29.9745    0.4519    0.0010
C  -31.2242   -0.4308    0.0106
C  -32.4730    0.4531    0.0023
C  -33.7226   -0.4297    0.0119
C  -34.9715    0.4542    0.0036
C  -36.2211   -0.4286    0.0132
C  -37.4700    0.4553    0.0049
C  -38.7196   -0.4275    0.0145
C  -39.9685    0.4564    0.0062
C  -41.2181   -0.4264    0.0158
C  -42.4669    0.4575    0.0075
C  -43.7166   -0.4253    0.0171
C  -44.9654    0.4586    0.0088
C  -46.2150   -0.4242    0.0183
C  -47.4639    0.4597    0.0101
C  -48.7135   -0.4231    0.0196
C  -49.9624    0.4608    0.0114
C  -51.2120   -0.4220    0.0209
C  -52.4609    0.4619    0.0127
C  -53.7105   -0.4209    0.0222
C  -54.9593    0.4630    0.0140
C  -56.2090   -0.4198    0.0235
O   55.7947    0.2682    0.8147
H   55.0882    1.1400   -0.8192
H   53.7234   -1.1066   -0.9171
H   53.7243   -1.0887    0.8628
H   52.4760    1.0537    0.8418
H   52.4751    1.0358   -0.9380
H   51.2249   -1.1055   -0.9158
H   51.2258   -1.0876    0.8641
H   49.9775    1.0548    0.8431
H   49.9766    1.0369   -0.9368
H   48.7264   -1.1044   -0.9145
H   48.7273   -1.0865    0.8654
H   47.4790    1.0560    0.8444
H   47.4781    1.0380   -0.9355
H   46.2279   -1.1033   -0.9132
H   46.2289   -1.0854    0.8667
H   44.9806    1.0571    0.8457
H   44.9796    1.0391   -0.9342
H   43.7295   -1.1022   -0.9119
H   43.7304   -1.0843    0.8680
H   42.4821    1.0582    0.8470
H   42.4812    1.0402   -0.9329
H   41.2310   -1.1011   -0.9106
H   41.2319   -1.0831    0.8693
H   39.9836    1.0593    0.8483
H   39.9827    1.0413   -0.9316
H   38.7325   -1.1000   -0.9093
H   38.7334   -1.0820    0.8706
H   37.4851    1.0604    0.8496
H   37.4842    1.0424   -0.9303
H   36.2340   -1.0989   -0.9080
H   36.2350   -1.0809    0.8718
H   34.9866    1.0615    0.8509
H   34.9857    1.0435   -0.9290
H   33.7355   -1.0978   -0.9067
H   33.7365   -1.0798    0.8731
H   32.4882    1.0626    0.8522
H   32.4872    1.0446   -0.9277
H   31.2371   -1.0967   -0.9054
H   31.2380   -1.0787    0.8744
H   29.9897    1.0637    0.8535
H   29.9888    1.0457   -0.9264
H   28.7386   -1.0956   -0.9041
H   28.7395   -1.0776    0.8757
H   27.4912    1.0648    0.8548
H   27.4903    1.0468   -0.9251
H   26.2401   -1.0945   -0.9028
H   26.2410   -1.0765    0.8770
H   24.9927    1.0659    0.8561
H   24.9918    1.0479   -0.9238
H   23.7416   -1.0934   -0.9015
H   23.7426   -1.0754    0.8783
H   22.4943    1.0670    0.8574
H   22.4933    1.0491   -0.9225
H   21.2431   -1.0923   -0.9002
H   21.2441   -1.0743    0.8796
H   19.9958    1.0681    0.8587
H   19.9948    1.0502   -0.9212
H   18.7447   -1.0912   -0.8989
H   18.7456   -1.0732    0.8809
H   17.4973    1.0692    0.8600
H   17.4964    1.0513   -0.9199
H   16.2462   -1.0900   -0.8977
H   16.2471   -1.0721    0.8822
H   14.9988    1.0703    0.8613
H   14.9979    1.0524   -0.9186
H   13.7477   -1.0889   -0.8964
H   13.7486   -1.0710    0.8835
H   12.5003    1.0714    0.8626
H   12.4994    1.0535   -0.9173
H   11.2492   -1.0878   -0.8951
H   11.2502   -1.0699    0.8848
H   10.0019    1.0725    0.8639
H   10.0009    1.0546   -0.9160
H    8.7508   -1.0867   -0.8938
H    8.7517   -1.0688    0.8861
H    7.5034    1.0736    0.8652
H    7.5024    1.0557   -0.9147
H    6.2523   -1.0856   -0.8925
H    6.2532   -1.0677    0.8874
H    5.0049    1.0747    0.8665
H    5.0040    1.0568   -0.9134
H    3.7538   -1.0845   -0.8912
H    3.7547   -1.0666    0.8887
H    2.5064    1.0758    0.8677
H    2.5055    1.0579   -0.9121
H    1.2553   -1.0834   -0.8899
H    1.2562   -1.0655    0.8900
H    0.0079    1.0769    0.8690
H    0.0070    1.0590   -0.9108
H   -1.2432   -1.0823   -0.8886
H   -1.2422   -1.0644    0.8913
H   -2.4905    1.0781    0.8703
H   -2.4915    1.0601   -0.9095
H   -3.7416   -1.0812   -0.8873
H   -3.7407   -1.0633    0.8926
H   -4.9890    1.0792    0.8716
H   -4.9899    1.0612   -0.9082
H   -6.2401   -1.0801   -0.8860
H   -6.2392   -1.0622    0.8939
H   -7.4875    1.0803    0.8729
H   -7.4884    1.0623   -0.9069
H   -8.7386   -1.0790   -0.8847
H   -8.7377   -1.0610    0.8952
H   -9.9860    1.0814    0.8742
H   -9.9869    1.0634   -0.9056
H  -11.2371   -1.0779   -0.8834
H  -11.2361   -1.0599    0.8965
H  -12.4845    1.0825    0.8755
H  -12.4854    1.0645   -0.9043
H  -13.7356   -1.0768   -0.8821
H  -13.7346   -1.0588    0.8978
H  -14.9829    1.0836    0.8768
H  -14.9839    1.0656   -0.9031
H  -16.2340   -1.0757   -0.8808
H  -16.2331   -1.0577    0.8991
H  -17.4814    1.0847    0.8781
H  -17.4823    1.0667   -0.9018
H  -18.7325   -1.0746   -0.8795
H  -18.7316   -1.0566    0.9004
H  -19.9799    1.0858    0.8794
H  -19.9808    1.0678   -0.9005
H  -21.2310   -1.0735   -0.8782
H  -21.2301   -1.0555    0.9017
H  -22.4784    1.0869    0.8807
H  -22.4793    1.0689   -0.8992
H  -23.7295   -1.0724   -0.8769
H  -23.7285   -1.0544    0.9030
H  -24.9768    1.0880    0.8820
H  -24.9778    1.0700   -0.8979
H  -26.2280   -1.0713   -0.8756
H  -26.2270   -1.0533    0.9043
H  -27.4753    1.0891    0.8833
H  -27.4763    1.0711   -0.8966
H  -28.7264   -1.0702   -0.8743
H  -28.7255   -1.0522    0.9056
H  -29.9738    1.0902    0.8846
H  -29.9747    1.0722   -0.8953
H  -31.2249   -1.0691   -0.8730
H  -31.2240   -1.0511    0.9069
H  -32.4723    1.0913    0.8859
H  -32.4732    1.0734   -0.8940
H  -33.7234   -1.0680   -0.8717
H  -33.7225   -1.0500    0.9081
H  -34.9708    1.0924    0.8872
H  -34.9717    1.0745   -0.8927
H  -36.2219   -1.0668   -0.8704
H  -36.2209   -1.0489    0.9094
H  -37.4692    1.0935    0.8885
H  -37.4702    1.0756   -0.8914
H  -38.7203   -1.0657   -0.8691
H  -38.7194   -1.0478    0.9107
H  -39.9677    1.0946    0.8898
H  -39.9687    1.0767   -0.8901
H  -41.2188   -1.0646   -0.8678
H  -41.2179   -1.0467    0.9120
H  -42.4662    1.0957    0.8911
H  -42.4671    1.0778   -0.8888
H  -43.7173   -1.0635   -0.8665
H  -43.7164   -1.0456    0.9133
H  -44.9647    1.0968    0.8924
H  -44.9656    1.0789   -0.8875
H  -46.2158   -1.0624   -0.8652
H  -46.2149   -1.0445    0.9146
H  -47.4632    1.0979    0.8937
H  -47.4641    1.0800   -0.8862
H  -48.7143   -1.0613   -0.8639
H  -48.7133   -1.0434    0.9159
H  -49.9616    1.0990    0.8950
H  -49.9626    1.0811   -0.8849
H  -51.2127   -1.0602   -0.8626
H  -51.2118   -1.0423    0.9172
H  -52.4601    1.1002    0.8963
H  -52.4610    1.0822   -0.8836
H  -53.7112   -1.0591   -0.8614
H  -53.7103   -1.0412    0.9185
H  -54.9586    1.1013    0.8976
H  -54.9595    1.0833   -0.8823
H  -57.0987    0.2099    0.0176
H  -56.2097   -1.0580   -0.8601
H  -56.2088   -1.0401    0.9198
