148
C49H98O
C   29.3497    0.3981   -0.0759
C   28.1188   -0.4712   -0.0574
C   26.8700    0.4126   -0.0720
C   25.6204   -0.4700   -0.0532
C   24.3715    0.4138   -0.0677
C   23.1219   -0.4687   -0.0490
C   21.8731    0.4151   -0.0635
C   20.6234   -0.4675   -0.0447
C   19.3746    0.4163   -0.0593
C   18.1249   -0.4662   -0.0405
C   16.8761    0.4176   -0.0550
C   15.6265   -0.4650   -0.0363
C   14.3776    0.4188   -0.0508
C   13.1280   -0.4637   -0.0320
C   11.8791    0.4201   -0.0466
C   10.6295   -0.4625   -0.0278
C    9.3807    0.4213   -0.0423
C    8.1310   -0.4613   -0.0235
C    6.8822    0.4226   -0.0381
C    5.6325   -0.4600   -0.0193
C    4.3837    0.4238   -0.0339
C    3.1341   -0.4588   -0.0151
C    1.8852    0.4250   -0.0296
C    0.6356   -0.4575   -0.0108
C   -0.6132    0.4263   -0.0254
C   -1.8629   -0.4563   -0.0066
C   -3.1117    0.4275   -0.0212
C   -4.3614   -0.4550   -0.0024
C   -5.6102    0.4288   -0.0169
C   -6.8598   -0.4538    0.0019
C   -8.1087    0.4300   -0.0127
C   -9.3583   -0.4525    0.0061
C  -10.6071    0.4313   -0.0085
C  -11.8568   -0.4513    0.0103
C  -13.1056    0.4325   -0.0042
C  -14.3553   -0.4501    0.0146
C  -15.6041    0.4338    0.0000
C  -16.8537   -0.4488    0.0188
C  -18.1026    0.4350    0.0043
C  -19.3522   -0.4476    0.0230
C  -20.6010    0.4362    0.0085
C  -21.8507   -0.4463    0.0273
C  -23.0995    0.4375    0.0127
C  -24.3492   -0.4451    0.0315
C  -25.5980    0.4387    0.0170
C  -26.8476   -0.4438    0.0358
C  -28.0965    0.4400    0.0212
C  -29.3461   -0.4426    0.0400
C  -30.5949    0.4412    0.0254
O   30.1904    0.2727    0.7818
H   29.4820    1.1302   -0.8588
H   28.1170   -1.1172   -0.9354
H   28.1201   -1.0836    0.8443
H   26.8718    1.0586    0.8060
H   26.8688    1.0250   -0.9737
H   25.6185   -1.1160   -0.9311
H   25.6216   -1.0824    0.8485
H   24.3733    1.0598    0.8102
H   24.3703    1.0262   -0.9694
H   23.1201   -1.1147   -0.9269
H   23.1231   -1.0811    0.8527
H   21.8749    1.0611    0.8144
H   21.8718    1.0275   -0.9652
H   20.6216   -1.1135   -0.9227
H   20.6246   -1.0799    0.8570
H   19.3764    1.0623    0.8187
H   19.3734    1.0287   -0.9610
H   18.1231   -1.1122   -0.9184
H   18.1262   -1.0786    0.8612
H   16.8779    1.0636    0.8229
H   16.8749    1.0300   -0.9567
H   15.6246   -1.1110   -0.9142
H   15.6277   -1.0774    0.8654
H   14.3794    1.0648    0.8271
H   14.3764    1.0312   -0.9525
H   13.1262   -1.1097   -0.9100
H   13.1292   -1.0761    0.8697
H   11.8810    1.0661    0.8314
H   11.8779    1.0325   -0.9483
H   10.6277   -1.1085   -0.9057
H   10.6307   -1.0749    0.8739
H    9.3825    1.0673    0.8356
H    9.3794    1.0337   -0.9440
H    8.1292   -1.1073   -0.9015
H    8.1322   -1.0737    0.8782
H    6.8840    1.0686    0.8398
H    6.8810    1.0350   -0.9398
H    5.6307   -1.1060   -0.8973
H    5.6338   -1.0724    0.8824
H    4.3855    1.0698    0.8441
H    4.3825    1.0362   -0.9356
H    3.1323   -1.1048   -0.8930
H    3.1353   -1.0712    0.8866
H    1.8871    1.0710    0.8483
H    1.8840    1.0374   -0.9313
H    0.6338   -1.1035   -0.8888
H    0.6368   -1.0699    0.8909
H   -0.6114    1.0723    0.8526
H   -0.6145    1.0387   -0.9271
H   -1.8647   -1.1023   -0.8845
H   -1.8617   -1.0687    0.8951
H   -3.1099    1.0735    0.8568
H   -3.1129    1.0399   -0.9229
H   -4.3632   -1.1010   -0.8803
H   -4.3601   -1.0674    0.8993
H   -5.6084    1.0748    0.8610
H   -5.6114    1.0412   -0.9186
H   -6.8616   -1.0998   -0.8761
H   -6.8586   -1.0662    0.9036
H   -8.1068    1.0760    0.8653
H   -8.1099    1.0424   -0.9144
H   -9.3601   -1.0985   -0.8718
H   -9.3571   -1.0649    0.9078
H  -10.6053    1.0773    0.8695
H  -10.6084    1.0437   -0.9102
H  -11.8586   -1.0973   -0.8676
H  -11.8556   -1.0637    0.9120
H  -13.1038    1.0785    0.8737
H  -13.1068    1.0449   -0.9059
H  -14.3571   -1.0960   -0.8634
H  -14.3540   -1.0625    0.9163
H  -15.6023    1.0798    0.8780
H  -15.6053    1.0462   -0.9017
H  -16.8555   -1.0948   -0.8591
H  -16.8525   -1.0612    0.9205
H  -18.1007    1.0810    0.8822
H  -18.1038    1.0474   -0.8974
H  -19.3540   -1.0936   -0.8549
H  -19.3510   -1.0600    0.9247
H  -20.5992    1.0822    0.8864
H  -20.6023    1.0486   -0.8932
H  -21.8525   -1.0923   -0.8507
H  -21.8495   -1.0587    0.9290
H  -23.0977    1.0835    0.8907
H  -23.1007    1.0499   -0.8890
H  -24.3510   -1.0911   -0.8464
H  -24.3479   -1.0575    0.9332
H  -25.5962    1.0847    0.8949
H  -25.5992    1.0511   -0.8847
H  -26.8494   -1.0898   -0.8422
H  -26.8464   -1.0562    0.9375
H  -28.0947    1.0860    0.8991
H  -28.0977    1.0524   -0.8805
H  -29.3479   -1.0886   -0.8380
H  -29.3449   -1.0550    0.9417
H  -31.4852   -0.1875    0.0388
H  -30.5931    1.0872    0.9034
H  -30.5962    1.0536   -0.8763
