298
C99H198O
C   60.5759    0.4131   -0.0395
C   59.3454   -0.4568   -0.0306
C   58.0962    0.4267   -0.0386
C   56.8469   -0.4565   -0.0295
C   55.5978    0.4270   -0.0375
C   54.3484   -0.4562   -0.0284
C   53.0993    0.4273   -0.0364
C   51.8499   -0.4559   -0.0273
C   50.6008    0.4276   -0.0353
C   49.3515   -0.4555   -0.0262
C   48.1023    0.4279   -0.0342
C   46.8530   -0.4552   -0.0251
C   45.6038    0.4282   -0.0331
C   44.3545   -0.4549   -0.0241
C   43.1054    0.4285   -0.0321
C   41.8560   -0.4546   -0.0230
C   40.6069    0.4289   -0.0310
C   39.3575   -0.4543   -0.0219
C   38.1084    0.4292   -0.0299
C   36.8591   -0.4540   -0.0208
C   35.6099    0.4295   -0.0288
C   34.3606   -0.4537   -0.0197
C   33.1115    0.4298   -0.0277
C   31.8621   -0.4534   -0.0187
C   30.6130    0.4301   -0.0267
C   29.3636   -0.4530   -0.0176
C   28.1145    0.4304   -0.0256
C   26.8651   -0.4527   -0.0165
C   25.6160    0.4307   -0.0245
C   24.3667   -0.4524   -0.0154
C   23.1175    0.4310   -0.0234
C   21.8682   -0.4521   -0.0143
C   20.6191    0.4313   -0.0223
C   19.3697   -0.4518   -0.0132
C   18.1206    0.4317   -0.0212
C   16.8712   -0.4515   -0.0122
C   15.6221    0.4320   -0.0202
C   14.3728   -0.4512   -0.0111
C   13.1236    0.4323   -0.0191
C   11.8743   -0.4509   -0.0100
C   10.6251    0.4326   -0.0180
C    9.3758   -0.4506   -0.0089
C    8.1267    0.4329   -0.0169
C    6.8773   -0.4502   -0.0078
C    5.6282    0.4332   -0.0158
C    4.3788   -0.4499   -0.0068
C    3.1297    0.4335   -0.0148
C    1.8804   -0.4496   -0.0057
C    0.6312    0.4338   -0.0137
C   -0.6181   -0.4493   -0.0046
C   -1.8673    0.4342   -0.0126
C   -3.1166   -0.4490   -0.0035
C   -4.3657    0.4345   -0.0115
C   -5.6151   -0.4487   -0.0024
C   -6.8642    0.4348   -0.0104
C   -8.1136   -0.4484   -0.0013
C   -9.3627    0.4351   -0.0094
C  -10.6120   -0.4481   -0.0003
C  -11.8612    0.4354   -0.0083
C  -13.1105   -0.4477    0.0008
C  -14.3597    0.4357   -0.0072
C  -15.6090   -0.4474    0.0019
C  -16.8581    0.4360   -0.0061
C  -18.1075   -0.4471    0.0030
C  -19.3566    0.4363   -0.0050
C  -20.6060   -0.4468    0.0041
C  -21.8551    0.4366   -0.0039
C  -23.1044   -0.4465    0.0051
C  -24.3536    0.4370   -0.0029
C  -25.6029   -0.4462    0.0062
C  -26.8521    0.4373   -0.0018
C  -28.1014   -0.4459    0.0073
C  -29.3505    0.4376   -0.0007
C  -30.5999   -0.4456    0.0084
C  -31.8490    0.4379    0.0004
C  -33.0984   -0.4453    0.0095
C  -34.3475    0.4382    0.0015
C  -35.5968   -0.4449    0.0106
C  -36.8460    0.4385    0.0025
C  -38.0953   -0.4446    0.0116
C  -39.3444    0.4388    0.0036
C  -40.5938   -0.4443    0.0127
C  -41.8429    0.4391    0.0047
C  -43.0923   -0.4440    0.0138
C  -44.3414    0.4395    0.0058
C  -45.5908   -0.4437    0.0149
C  -46.8399    0.4398    0.0069
C  -48.0892   -0.4434    0.0160
C  -49.3384    0.4401    0.0080
C  -50.5877   -0.4431    0.0170
C  -51.8368    0.4404    0.0090
C  -53.0862   -0.4428    0.0181
C  -54.3353    0.4407    0.0101
C  -55.5847   -0.4424    0.0192
C  -56.8338    0.4410    0.0112
C  -58.0831   -0.4421    0.0203
C  -59.3323    0.4413    0.0123
C  -60.5816   -0.4418    0.0214
C  -61.8308    0.4416    0.0134
O   61.4156    0.2801    0.8181
H   60.7090    1.1524   -0.8155
H   59.3449   -1.0947   -0.9144
H   59.3457   -1.0775    0.8655
H   58.0967    1.0646    0.8453
H   58.0959    1.0473   -0.9346
H   56.8464   -1.0944   -0.9133
H   56.8472   -1.0772    0.8666
H   55.5982    1.0649    0.8464
H   55.5975    1.0477   -0.9335
H   54.3480   -1.0941   -0.9122
H   54.3487   -1.0768    0.8676
H   53.0997    1.0652    0.8475
H   53.0990    1.0480   -0.9324
H   51.8495   -1.0937   -0.9112
H   51.8503   -1.0765    0.8687
H   50.6013    1.0655    0.8485
H   50.6005    1.0483   -0.9313
H   49.3510   -1.0934   -0.9101
H   49.3518   -1.0762    0.8698
H   48.1028    1.0658    0.8496
H   48.1020    1.0486   -0.9303
H   46.8525   -1.0931   -0.9090
H   46.8533   -1.0759    0.8709
H   45.6043    1.0661    0.8507
H   45.6035    1.0489   -0.9292
H   44.3540   -1.0928   -0.9079
H   44.3548   -1.0756    0.8720
H   43.1058    1.0664    0.8518
H   43.1051    1.0492   -0.9281
H   41.8556   -1.0925   -0.9068
H   41.8563   -1.0753    0.8730
H   40.6073    1.0667    0.8529
H   40.6066    1.0495   -0.9270
H   39.3571   -1.0922   -0.9058
H   39.3579   -1.0750    0.8741
H   38.1089    1.0671    0.8540
H   38.1081    1.0498   -0.9259
H   36.8586   -1.0919   -0.9047
H   36.8594   -1.0747    0.8752
H   35.6104    1.0674    0.8550
H   35.6096    1.0502   -0.9248
H   34.3601   -1.0916   -0.9036
H   34.3609   -1.0743    0.8763
H   33.1119    1.0677    0.8561
H   33.1111    1.0505   -0.9238
H   31.8616   -1.0913   -0.9025
H   31.8624   -1.0740    0.8774
H   30.6134    1.0680    0.8572
H   30.6127    1.0508   -0.9227
H   29.3632   -1.0909   -0.9014
H   29.3639   -1.0737    0.8785
H   28.1150    1.0683    0.8583
H   28.1142    1.0511   -0.9216
H   26.8647   -1.0906   -0.9003
H   26.8655   -1.0734    0.8795
H   25.6165    1.0686    0.8594
H   25.6157    1.0514   -0.9205
H   24.3662   -1.0903   -0.8993
H   24.3670   -1.0731    0.8806
H   23.1180    1.0689    0.8604
H   23.1172    1.0517   -0.9194
H   21.8677   -1.0900   -0.8982
H   21.8685   -1.0728    0.8817
H   20.6195    1.0692    0.8615
H   20.6187    1.0520   -0.9184
H   19.3692   -1.0897   -0.8971
H   19.3700   -1.0725    0.8828
H   18.1210    1.0695    0.8626
H   18.1203    1.0523   -0.9173
H   16.8708   -1.0894   -0.8960
H   16.8715   -1.0722    0.8839
H   15.6226    1.0699    0.8637
H   15.6218    1.0526   -0.9162
H   14.3723   -1.0891   -0.8949
H   14.3731   -1.0719    0.8849
H   13.1241    1.0702    0.8648
H   13.1233    1.0530   -0.9151
H   11.8738   -1.0888   -0.8939
H   11.8746   -1.0715    0.8860
H   10.6256    1.0705    0.8658
H   10.6248    1.0533   -0.9140
H    9.3753   -1.0884   -0.8928
H    9.3761   -1.0712    0.8871
H    8.1271    1.0708    0.8669
H    8.1263    1.0536   -0.9129
H    6.8769   -1.0881   -0.8917
H    6.8776   -1.0709    0.8882
H    5.6286    1.0711    0.8680
H    5.6279    1.0539   -0.9119
H    4.3784   -1.0878   -0.8906
H    4.3791   -1.0706    0.8893
H    3.1302    1.0714    0.8691
H    3.1294    1.0542   -0.9108
H    1.8799   -1.0875   -0.8895
H    1.8807   -1.0703    0.8904
H    0.6317    1.0717    0.8702
H    0.6309    1.0545   -0.9097
H   -0.6186   -1.0872   -0.8884
H   -0.6178   -1.0700    0.8914
H   -1.8668    1.0720    0.8713
H   -1.8676    1.0548   -0.9086
H   -3.1171   -1.0869   -0.8874
H   -3.1163   -1.0697    0.8925
H   -4.3653    1.0724    0.8723
H   -4.3660    1.0551   -0.9075
H   -5.6155   -1.0866   -0.8863
H   -5.6148   -1.0694    0.8936
H   -6.8638    1.0727    0.8734
H   -6.8645    1.0555   -0.9065
H   -8.1140   -1.0863   -0.8852
H   -8.1133   -1.0690    0.8947
H   -9.3622    1.0730    0.8745
H   -9.3630    1.0558   -0.9054
H  -10.6125   -1.0860   -0.8841
H  -10.6117   -1.0687    0.8958
H  -11.8607    1.0733    0.8756
H  -11.8615    1.0561   -0.9043
H  -13.1110   -1.0856   -0.8830
H  -13.1102   -1.0684    0.8968
H  -14.3592    1.0736    0.8767
H  -14.3600    1.0564   -0.9032
H  -15.6095   -1.0853   -0.8820
H  -15.6087   -1.0681    0.8979
H  -16.8577    1.0739    0.8777
H  -16.8584    1.0567   -0.9021
H  -18.1079   -1.0850   -0.8809
H  -18.1072   -1.0678    0.8990
H  -19.3561    1.0742    0.8788
H  -19.3569    1.0570   -0.9011
H  -20.6064   -1.0847   -0.8798
H  -20.6056   -1.0675    0.9001
H  -21.8546    1.0745    0.8799
H  -21.8554    1.0573   -0.9000
H  -23.1049   -1.0844   -0.8787
H  -23.1041   -1.0672    0.9012
H  -24.3531    1.0749    0.8810
H  -24.3539    1.0576   -0.8989
H  -25.6034   -1.0841   -0.8776
H  -25.6026   -1.0669    0.9023
H  -26.8516    1.0752    0.8821
H  -26.8524    1.0579   -0.8978
H  -28.1019   -1.0838   -0.8765
H  -28.1011   -1.0665    0.9033
H  -29.3501    1.0755    0.8832
H  -29.3508    1.0583   -0.8967
H  -30.6003   -1.0835   -0.8755
H  -30.5996   -1.0662    0.9044
H  -31.8485    1.0758    0.8842
H  -31.8493    1.0586   -0.8956
H  -33.0988   -1.0831   -0.8744
H  -33.0980   -1.0659    0.9055
H  -34.3470    1.0761    0.8853
H  -34.3478    1.0589   -0.8946
H  -35.5973   -1.0828   -0.8733
H  -35.5965   -1.0656    0.9066
H  -36.8455    1.0764    0.8864
H  -36.8463    1.0592   -0.8935
H  -38.0958   -1.0825   -0.8722
H  -38.0950   -1.0653    0.9077
H  -39.3440    1.0767    0.8875
H  -39.3448    1.0595   -0.8924
H  -40.5943   -1.0822   -0.8711
H  -40.5935   -1.0650    0.9087
H  -41.8425    1.0770    0.8886
H  -41.8432    1.0598   -0.8913
H  -43.0927   -1.0819   -0.8701
H  -43.0920   -1.0647    0.9098
H  -44.3409    1.0773    0.8896
H  -44.3417    1.0601   -0.8902
H  -45.5912   -1.0816   -0.8690
H  -45.5904   -1.0644    0.9109
H  -46.8394    1.0777    0.8907
H  -46.8402    1.0604   -0.8892
H  -48.0897   -1.0813   -0.8679
H  -48.0889   -1.0641    0.9120
H  -49.3379    1.0780    0.8918
H  -49.3387    1.0608   -0.8881
H  -50.5882   -1.0810   -0.8668
H  -50.5874   -1.0637    0.9131
H  -51.8364    1.0783    0.8929
H  -51.8372    1.0611   -0.8870
H  -53.0867   -1.0807   -0.8657
H  -53.0859   -1.0634    0.9142
H  -54.3349    1.0786    0.8940
H  -54.3356    1.0614   -0.8859
H  -55.5851   -1.0803   -0.8646
H  -55.5844   -1.0631    0.9152
H  -56.8333    1.0789    0.8951
H  -56.8341    1.0617   -0.8848
H  -58.0836   -1.0800   -0.8636
H  -58.0828   -1.0628    0.9163
H  -59.3318    1.0792    0.8961
H  -59.3326    1.0620   -0.8837
H  -60.5821   -1.0797   -0.8625
H  -60.5813   -1.0625    0.9174
H  -61.8303    1.0795    0.8972
H  -61.8311    1.0623   -0.8827
H  -62.7208   -0.1875    0.0198
