178
C59H118O
C   35.5943    0.4030   -0.0641
C   34.3636   -0.4665   -0.0489
C   33.1146    0.4172   -0.0614
C   31.8651   -0.4656   -0.0459
C   30.6161    0.4180   -0.0584
C   29.3666   -0.4648   -0.0429
C   28.1177    0.4189   -0.0555
C   26.8681   -0.4639   -0.0400
C   25.6192    0.4198   -0.0525
C   24.3697   -0.4630   -0.0370
C   23.1207    0.4206   -0.0495
C   21.8712   -0.4622   -0.0340
C   20.6222    0.4215   -0.0466
C   19.3727   -0.4613   -0.0311
C   18.1238    0.4224   -0.0436
C   16.8742   -0.4604   -0.0281
C   15.6253    0.4232   -0.0407
C   14.3757   -0.4596   -0.0252
C   13.1268    0.4241   -0.0377
C   11.8773   -0.4587   -0.0222
C   10.6283    0.4250   -0.0347
C    9.3788   -0.4578   -0.0192
C    8.1298    0.4258   -0.0318
C    6.8803   -0.4570   -0.0163
C    5.6314    0.4267   -0.0288
C    4.3818   -0.4561   -0.0133
C    3.1329    0.4276   -0.0258
C    1.8834   -0.4552   -0.0104
C    0.6344    0.4284   -0.0229
C   -0.6151   -0.4544   -0.0074
C   -1.8641    0.4293   -0.0199
C   -3.1136   -0.4535   -0.0044
C   -4.3625    0.4302   -0.0170
C   -5.6121   -0.4526   -0.0015
C   -6.8610    0.4310   -0.0140
C   -8.1106   -0.4518    0.0015
C   -9.3595    0.4319   -0.0110
C  -10.6090   -0.4509    0.0045
C  -11.8580    0.4328   -0.0081
C  -13.1075   -0.4500    0.0074
C  -14.3565    0.4336   -0.0051
C  -15.6060   -0.4492    0.0104
C  -16.8549    0.4345   -0.0022
C  -18.1045   -0.4483    0.0133
C  -19.3534    0.4353    0.0008
C  -20.6029   -0.4475    0.0163
C  -21.8519    0.4362    0.0038
C  -23.1014   -0.4466    0.0193
C  -24.3504    0.4371    0.0067
C  -25.5999   -0.4457    0.0222
C  -26.8488    0.4379    0.0097
C  -28.0984   -0.4449    0.0252
C  -29.3473    0.4388    0.0127
C  -30.5968   -0.4440    0.0282
C  -31.8458    0.4397    0.0156
C  -33.0953   -0.4431    0.0311
C  -34.3443    0.4405    0.0186
C  -35.5938   -0.4423    0.0341
C  -36.8428    0.4414    0.0215
O   36.4346    0.2752    0.7937
H   35.7269    1.1375   -0.8448
H   34.3623   -1.1098   -0.9287
H   34.3644   -1.0816    0.8510
H   33.1159    1.0605    0.8185
H   33.1138    1.0323   -0.9612
H   31.8638   -1.1090   -0.9258
H   31.8659   -1.0807    0.8540
H   30.6174    1.0614    0.8215
H   30.6153    1.0332   -0.9583
H   29.3653   -1.1081   -0.9228
H   29.3675   -1.0799    0.8569
H   28.1189    1.0623    0.8244
H   28.1168    1.0340   -0.9553
H   26.8669   -1.1072   -0.9199
H   26.8690   -1.0790    0.8599
H   25.6205    1.0631    0.8274
H   25.6183    1.0349   -0.9524
H   24.3684   -1.1064   -0.9169
H   24.3705   -1.0781    0.8628
H   23.1220    1.0640    0.8303
H   23.1199    1.0358   -0.9494
H   21.8699   -1.1055   -0.9139
H   21.8720   -1.0773    0.8658
H   20.6235    1.0649    0.8333
H   20.6214    1.0366   -0.9464
H   19.3714   -1.1046   -0.9110
H   19.3736   -1.0764    0.8688
H   18.1250    1.0657    0.8363
H   18.1229    1.0375   -0.9435
H   16.8730   -1.1038   -0.9080
H   16.8751   -1.0755    0.8717
H   15.6265    1.0666    0.8392
H   15.6244    1.0384   -0.9405
H   14.3745   -1.1029   -0.9050
H   14.3766   -1.0747    0.8747
H   13.1281    1.0675    0.8422
H   13.1259    1.0392   -0.9375
H   11.8760   -1.1020   -0.9021
H   11.8781   -1.0738    0.8777
H   10.6296    1.0683    0.8452
H   10.6275    1.0401   -0.9346
H    9.3775   -1.1012   -0.8991
H    9.3796   -1.0729    0.8806
H    8.1311    1.0692    0.8481
H    8.1290    1.0409   -0.9316
H    6.8790   -1.1003   -0.8962
H    6.8812   -1.0721    0.8836
H    5.6326    1.0700    0.8511
H    5.6305    1.0418   -0.9287
H    4.3806   -1.0995   -0.8932
H    4.3827   -1.0712    0.8865
H    3.1342    1.0709    0.8540
H    3.1320    1.0427   -0.9257
H    1.8821   -1.0986   -0.8902
H    1.8842   -1.0704    0.8895
H    0.6357    1.0718    0.8570
H    0.6336    1.0435   -0.9227
H   -0.6164   -1.0977   -0.8873
H   -0.6143   -1.0695    0.8925
H   -1.8628    1.0726    0.8600
H   -1.8649    1.0444   -0.9198
H   -3.1149   -1.0969   -0.8843
H   -3.1127   -1.0686    0.8954
H   -4.3613    1.0735    0.8629
H   -4.3634    1.0453   -0.9168
H   -5.6133   -1.0960   -0.8814
H   -5.6112   -1.0678    0.8984
H   -6.8598    1.0744    0.8659
H   -6.8619    1.0461   -0.9139
H   -8.1118   -1.0951   -0.8784
H   -8.1097   -1.0669    0.9013
H   -9.3582    1.0752    0.8688
H   -9.3604    1.0470   -0.9109
H  -10.6103   -1.0943   -0.8754
H  -10.6082   -1.0660    0.9043
H  -11.8567    1.0761    0.8718
H  -11.8588    1.0479   -0.9079
H  -13.1088   -1.0934   -0.8725
H  -13.1067   -1.0652    0.9073
H  -14.3552    1.0770    0.8748
H  -14.3573    1.0487   -0.9050
H  -15.6073   -1.0925   -0.8695
H  -15.6051   -1.0643    0.9102
H  -16.8537    1.0778    0.8777
H  -16.8558    1.0496   -0.9020
H  -18.1057   -1.0917   -0.8665
H  -18.1036   -1.0634    0.9132
H  -19.3521    1.0787    0.8807
H  -19.3543    1.0505   -0.8990
H  -20.6042   -1.0908   -0.8636
H  -20.6021   -1.0626    0.9162
H  -21.8506    1.0796    0.8837
H  -21.8527    1.0513   -0.8961
H  -23.1027   -1.0899   -0.8606
H  -23.1006   -1.0617    0.9191
H  -24.3491    1.0804    0.8866
H  -24.3512    1.0522   -0.8931
H  -25.6012   -1.0891   -0.8577
H  -25.5990   -1.0608    0.9221
H  -26.8476    1.0813    0.8896
H  -26.8497    1.0531   -0.8902
H  -28.0996   -1.0882   -0.8547
H  -28.0975   -1.0600    0.9250
H  -29.3461    1.0822    0.8925
H  -29.3482    1.0539   -0.8872
H  -30.5981   -1.0873   -0.8517
H  -30.5960   -1.0591    0.9280
H  -31.8445    1.0830    0.8955
H  -31.8467    1.0548   -0.8842
H  -33.0966   -1.0865   -0.8488
H  -33.0945   -1.0582    0.9310
H  -34.3430    1.0839    0.8985
H  -34.3451    1.0557   -0.8813
H  -35.5951   -1.0856   -0.8458
H  -35.5930   -1.0574    0.9339
H  -36.8415    1.0848    0.9014
H  -36.8436    1.0565   -0.8783
H  -37.7329   -0.1875    0.0326
