118
C39H78O
C   23.1059    0.3907   -0.0931
C   21.8748   -0.4782   -0.0696
C   20.6262    0.4059   -0.0869
C   19.3763   -0.4762   -0.0630
C   18.1277    0.4079   -0.0803
C   16.8778   -0.4743   -0.0565
C   15.6292    0.4098   -0.0738
C   14.3794   -0.4723   -0.0499
C   13.1308    0.4117   -0.0672
C   11.8809   -0.4704   -0.0434
C   10.6323    0.4137   -0.0607
C    9.3824   -0.4684   -0.0368
C    8.1338    0.4156   -0.0541
C    6.8840   -0.4665   -0.0303
C    5.6354    0.4176   -0.0476
C    4.3855   -0.4646   -0.0237
C    3.1369    0.4195   -0.0410
C    1.8870   -0.4626   -0.0172
C    0.6384    0.4215   -0.0345
C   -0.6115   -0.4607   -0.0106
C   -1.8601    0.4234   -0.0279
C   -3.1099   -0.4587   -0.0041
C   -4.3585    0.4253   -0.0214
C   -5.6084   -0.4568    0.0025
C   -6.8570    0.4273   -0.0148
C   -8.1069   -0.4549    0.0090
C   -9.3555    0.4292   -0.0083
C  -10.6053   -0.4529    0.0156
C  -11.8539    0.4312   -0.0017
C  -13.1038   -0.4510    0.0221
C  -14.3524    0.4331    0.0048
C  -15.6023   -0.4490    0.0287
C  -16.8509    0.4351    0.0114
C  -18.1007   -0.4471    0.0352
C  -19.3493    0.4370    0.0179
C  -20.5992   -0.4451    0.0418
C  -21.8478    0.4389    0.0245
C  -23.0977   -0.4432    0.0483
C  -24.3463    0.4409    0.0310
O   23.9473    0.2689    0.7645
H   23.2377    1.1193   -0.8793
H   21.8720   -1.1280   -0.9447
H   21.8767   -1.0866    0.8348
H   20.6290    1.0558    0.7882
H   20.6243    1.0143   -0.9913
H   19.3735   -1.1261   -0.9381
H   19.3782   -1.0846    0.8414
H   18.1305    1.0577    0.7947
H   18.1258    1.0163   -0.9847
H   16.8750   -1.1241   -0.9316
H   16.8797   -1.0827    0.8479
H   15.6320    1.0597    0.8013
H   15.6273    1.0182   -0.9782
H   14.3766   -1.1222   -0.9250
H   14.3813   -1.0807    0.8545
H   13.1336    1.0616    0.8078
H   13.1289    1.0202   -0.9716
H   11.8781   -1.1203   -0.9185
H   11.8828   -1.0788    0.8610
H   10.6351    1.0636    0.8144
H   10.6304    1.0221   -0.9651
H    9.3796   -1.1183   -0.9119
H    9.3843   -1.0769    0.8676
H    8.1366    1.0655    0.8209
H    8.1319    1.0240   -0.9585
H    6.8812   -1.1164   -0.9054
H    6.8859   -1.0749    0.8741
H    5.6382    1.0674    0.8275
H    5.6335    1.0260   -0.9520
H    4.3827   -1.1144   -0.8988
H    4.3874   -1.0730    0.8807
H    3.1397    1.0694    0.8340
H    3.1350    1.0279   -0.9454
H    1.8842   -1.1125   -0.8923
H    1.8889   -1.0710    0.8872
H    0.6412    1.0713    0.8406
H    0.6365    1.0299   -0.9389
H   -0.6143   -1.1105   -0.8857
H   -0.6096   -1.0691    0.8938
H   -1.8573    1.0733    0.8471
H   -1.8620    1.0318   -0.9323
H   -3.1127   -1.1086   -0.8792
H   -3.1080   -1.0671    0.9003
H   -4.3557    1.0752    0.8537
H   -4.3604    1.0338   -0.9258
H   -5.6112   -1.1067   -0.8726
H   -5.6065   -1.0652    0.9069
H   -6.8542    1.0772    0.8602
H   -6.8589    1.0357   -0.9192
H   -8.1097   -1.1047   -0.8661
H   -8.1050   -1.0633    0.9134
H   -9.3527    1.0791    0.8668
H   -9.3574    1.0376   -0.9127
H  -10.6081   -1.1028   -0.8595
H  -10.6034   -1.0613    0.9200
H  -11.8511    1.0810    0.8734
H  -11.8558    1.0396   -0.9061
H  -13.1066   -1.1008   -0.8530
H  -13.1019   -1.0594    0.9265
H  -14.3496    1.0830    0.8799
H  -14.3543    1.0415   -0.8996
H  -15.6051   -1.0989   -0.8464
H  -15.6004   -1.0574    0.9331
H  -16.8481    1.0849    0.8865
H  -16.8528    1.0435   -0.8930
H  -18.1035   -1.0970   -0.8399
H  -18.0988   -1.0555    0.9396
H  -19.3465    1.0869    0.8930
H  -19.3512    1.0454   -0.8865
H  -20.6020   -1.0950   -0.8333
H  -20.5973   -1.0536    0.9462
H  -21.8450    1.0888    0.8996
H  -21.8497    1.0473   -0.8799
H  -23.1005   -1.0931   -0.8267
H  -23.0958   -1.0516    0.9527
H  -24.3435    1.0907    0.9061
H  -24.3482    1.0493   -0.8734
H  -25.2367   -0.1876    0.0480
