358
C119H238O
C   73.0676    0.4156   -0.0331
C   71.8370   -0.4543   -0.0257
C   70.5879    0.4291   -0.0325
C   69.3385   -0.4541   -0.0250
C   68.0894    0.4293   -0.0317
C   66.8401   -0.4539   -0.0242
C   65.5909    0.4295   -0.0310
C   64.3416   -0.4537   -0.0235
C   63.0924    0.4298   -0.0302
C   61.8431   -0.4535   -0.0227
C   60.5939    0.4300   -0.0295
C   59.3446   -0.4532   -0.0220
C   58.0955    0.4302   -0.0287
C   56.8461   -0.4530   -0.0212
C   55.5970    0.4304   -0.0280
C   54.3477   -0.4528   -0.0205
C   53.0985    0.4306   -0.0272
C   51.8492   -0.4526   -0.0197
C   50.6000    0.4308   -0.0265
C   49.3507   -0.4524   -0.0189
C   48.1015    0.4311   -0.0257
C   46.8522   -0.4522   -0.0182
C   45.6031    0.4313   -0.0250
C   44.3537   -0.4519   -0.0174
C   43.1046    0.4315   -0.0242
C   41.8553   -0.4517   -0.0167
C   40.6061    0.4317   -0.0234
C   39.3568   -0.4515   -0.0159
C   38.1076    0.4319   -0.0227
C   36.8583   -0.4513   -0.0152
C   35.6091    0.4321   -0.0219
C   34.3598   -0.4511   -0.0144
C   33.1107    0.4324   -0.0212
C   31.8613   -0.4509   -0.0137
C   30.6122    0.4326   -0.0204
C   29.3629   -0.4506   -0.0129
C   28.1137    0.4328   -0.0197
C   26.8644   -0.4504   -0.0122
C   25.6152    0.4330   -0.0189
C   24.3659   -0.4502   -0.0114
C   23.1167    0.4332   -0.0182
C   21.8674   -0.4500   -0.0106
C   20.6183    0.4334   -0.0174
C   19.3689   -0.4498   -0.0099
C   18.1198    0.4337   -0.0167
C   16.8705   -0.4496   -0.0091
C   15.6213    0.4339   -0.0159
C   14.3720   -0.4493   -0.0084
C   13.1228    0.4341   -0.0152
C   11.8735   -0.4491   -0.0076
C   10.6243    0.4343   -0.0144
C    9.3750   -0.4489   -0.0069
C    8.1259    0.4345   -0.0136
C    6.8766   -0.4487   -0.0061
C    5.6274    0.4347   -0.0129
C    4.3781   -0.4485   -0.0054
C    3.1289    0.4350   -0.0121
C    1.8796   -0.4483   -0.0046
C    0.6304    0.4352   -0.0114
C   -0.6189   -0.4480   -0.0039
C   -1.8681    0.4354   -0.0106
C   -3.1174   -0.4478   -0.0031
C   -4.3665    0.4356   -0.0099
C   -5.6158   -0.4476   -0.0024
C   -6.8650    0.4358   -0.0091
C   -8.1143   -0.4474   -0.0016
C   -9.3635    0.4360   -0.0084
C  -10.6128   -0.4472   -0.0008
C  -11.8620    0.4363   -0.0076
C  -13.1113   -0.4470   -0.0001
C  -14.3604    0.4365   -0.0069
C  -15.6098   -0.4467    0.0007
C  -16.8589    0.4367   -0.0061
C  -18.1082   -0.4465    0.0014
C  -19.3574    0.4369   -0.0054
C  -20.6067   -0.4463    0.0022
C  -21.8559    0.4371   -0.0046
C  -23.1052   -0.4461    0.0029
C  -24.3544    0.4373   -0.0038
C  -25.6037   -0.4459    0.0037
C  -26.8528    0.4376   -0.0031
C  -28.1022   -0.4457    0.0044
C  -29.3513    0.4378   -0.0023
C  -30.6006   -0.4454    0.0052
C  -31.8498    0.4380   -0.0016
C  -33.0991   -0.4452    0.0059
C  -34.3483    0.4382   -0.0008
C  -35.5976   -0.4450    0.0067
C  -36.8468    0.4384   -0.0001
C  -38.0961   -0.4448    0.0074
C  -39.3452    0.4386    0.0007
C  -40.5946   -0.4446    0.0082
C  -41.8437    0.4389    0.0014
C  -43.0930   -0.4444    0.0090
C  -44.3422    0.4391    0.0022
C  -45.5915   -0.4441    0.0097
C  -46.8407    0.4393    0.0029
C  -48.0900   -0.4439    0.0105
C  -49.3392    0.4395    0.0037
C  -50.5885   -0.4437    0.0112
C  -51.8376    0.4397    0.0044
C  -53.0870   -0.4435    0.0120
C  -54.3361    0.4399    0.0052
C  -55.5854   -0.4433    0.0127
C  -56.8346    0.4402    0.0060
C  -58.0839   -0.4431    0.0135
C  -59.3331    0.4404    0.0067
C  -60.5824   -0.4428    0.0142
C  -61.8316    0.4406    0.0075
C  -63.0809   -0.4426    0.0150
C  -64.3300    0.4408    0.0082
C  -65.5793   -0.4424    0.0157
C  -66.8285    0.4410    0.0090
C  -68.0778   -0.4422    0.0165
C  -69.3270    0.4412    0.0097
C  -70.5763   -0.4420    0.0173
C  -71.8255    0.4415    0.0105
C  -73.0748   -0.4418    0.0180
C  -74.3240    0.4417    0.0112
O   73.9071    0.2813    0.8244
H   73.2007    1.1561   -0.8079
H   71.8367   -1.0908   -0.9106
H   71.8372   -1.0764    0.8693
H   70.5882    1.0656    0.8524
H   70.5876    1.0512   -0.9275
H   69.3382   -1.0906   -0.9098
H   69.3388   -1.0762    0.8701
H   68.0897    1.0658    0.8531
H   68.0892    1.0514   -0.9268
H   66.8397   -1.0904   -0.9091
H   66.8403   -1.0760    0.8708
H   65.5912    1.0660    0.8539
H   65.5907    1.0516   -0.9260
H   64.3413   -1.0902   -0.9083
H   64.3418   -1.0758    0.8716
H   63.0927    1.0662    0.8546
H   63.0922    1.0518   -0.9253
H   61.8428   -1.0899   -0.9076
H   61.8433   -1.0755    0.8723
H   60.5943    1.0665    0.8554
H   60.5937    1.0521   -0.9245
H   59.3443   -1.0897   -0.9068
H   59.3448   -1.0753    0.8731
H   58.0958    1.0667    0.8561
H   58.0952    1.0523   -0.9238
H   56.8458   -1.0895   -0.9061
H   56.8464   -1.0751    0.8738
H   55.5973    1.0669    0.8569
H   55.5968    1.0525   -0.9230
H   54.3473   -1.0893   -0.9053
H   54.3479   -1.0749    0.8746
H   53.0988    1.0671    0.8576
H   53.0983    1.0527   -0.9223
H   51.8489   -1.0891   -0.9046
H   51.8494   -1.0747    0.8753
H   50.6003    1.0673    0.8584
H   50.5998    1.0529   -0.9215
H   49.3504   -1.0889   -0.9038
H   49.3509   -1.0745    0.8761
H   48.1019    1.0675    0.8592
H   48.1013    1.0531   -0.9208
H   46.8519   -1.0886   -0.9030
H   46.8524   -1.0742    0.8769
H   45.6034    1.0678    0.8599
H   45.6028    1.0534   -0.9200
H   44.3534   -1.0884   -0.9023
H   44.3540   -1.0740    0.8776
H   43.1049    1.0680    0.8607
H   43.1044    1.0536   -0.9192
H   41.8549   -1.0882   -0.9015
H   41.8555   -1.0738    0.8784
H   40.6064    1.0682    0.8614
H   40.6059    1.0538   -0.9185
H   39.3565   -1.0880   -0.9008
H   39.3570   -1.0736    0.8791
H   38.1079    1.0684    0.8622
H   38.1074    1.0540   -0.9177
H   36.8580   -1.0878   -0.9000
H   36.8585   -1.0734    0.8799
H   35.6095    1.0686    0.8629
H   35.6089    1.0542   -0.9170
H   34.3595   -1.0876   -0.8993
H   34.3600   -1.0732    0.8806
H   33.1110    1.0688    0.8637
H   33.1104    1.0544   -0.9162
H   31.8610   -1.0873   -0.8985
H   31.8616   -1.0729    0.8814
H   30.6125    1.0691    0.8644
H   30.6120    1.0547   -0.9155
H   29.3625   -1.0871   -0.8978
H   29.3631   -1.0727    0.8821
H   28.1140    1.0693    0.8652
H   28.1135    1.0549   -0.9147
H   26.8641   -1.0869   -0.8970
H   26.8646   -1.0725    0.8829
H   25.6155    1.0695    0.8659
H   25.6150    1.0551   -0.9140
H   24.3656   -1.0867   -0.8963
H   24.3661   -1.0723    0.8836
H   23.1171    1.0697    0.8667
H   23.1165    1.0553   -0.9132
H   21.8671   -1.0865   -0.8955
H   21.8676   -1.0721    0.8844
H   20.6186    1.0699    0.8674
H   20.6180    1.0555   -0.9125
H   19.3686   -1.0863   -0.8948
H   19.3692   -1.0719    0.8851
H   18.1201    1.0701    0.8682
H   18.1196    1.0557   -0.9117
H   16.8701   -1.0860   -0.8940
H   16.8707   -1.0716    0.8859
H   15.6216    1.0704    0.8690
H   15.6211    1.0560   -0.9110
H   14.3717   -1.0858   -0.8932
H   14.3722   -1.0714    0.8867
H   13.1231    1.0706    0.8697
H   13.1226    1.0562   -0.9102
H   11.8732   -1.0856   -0.8925
H   11.8737   -1.0712    0.8874
H   10.6247    1.0708    0.8705
H   10.6241    1.0564   -0.9094
H    9.3747   -1.0854   -0.8917
H    9.3752   -1.0710    0.8882
H    8.1262    1.0710    0.8712
H    8.1256    1.0566   -0.9087
H    6.8762   -1.0852   -0.8910
H    6.8768   -1.0708    0.8889
H    5.6277    1.0712    0.8720
H    5.6272    1.0568   -0.9079
H    4.3777   -1.0850   -0.8902
H    4.3783   -1.0706    0.8897
H    3.1292    1.0714    0.8727
H    3.1287    1.0570   -0.9072
H    1.8793   -1.0847   -0.8895
H    1.8798   -1.0703    0.8904
H    0.6307    1.0717    0.8735
H    0.6302    1.0573   -0.9064
H   -0.6192   -1.0845   -0.8887
H   -0.6187   -1.0701    0.8912
H   -1.8677    1.0719    0.8742
H   -1.8683    1.0575   -0.9057
H   -3.1177   -1.0843   -0.8880
H   -3.1171   -1.0699    0.8919
H   -4.3662    1.0721    0.8750
H   -4.3667    1.0577   -0.9049
H   -5.6162   -1.0841   -0.8872
H   -5.6156   -1.0697    0.8927
H   -6.8647    1.0723    0.8757
H   -6.8652    1.0579   -0.9042
H   -8.1146   -1.0839   -0.8865
H   -8.1141   -1.0695    0.8934
H   -9.3632    1.0725    0.8765
H   -9.3637    1.0581   -0.9034
H  -10.6131   -1.0837   -0.8857
H  -10.6126   -1.0693    0.8942
H  -11.8616    1.0727    0.8772
H  -11.8622    1.0583   -0.9027
H  -13.1116   -1.0834   -0.8850
H  -13.1111   -1.0690    0.8950
H  -14.3601    1.0730    0.8780
H  -14.3607    1.0586   -0.9019
H  -15.6101   -1.0832   -0.8842
H  -15.6095   -1.0688    0.8957
H  -16.8586    1.0732    0.8787
H  -16.8591    1.0588   -0.9012
H  -18.1086   -1.0830   -0.8834
H  -18.1080   -1.0686    0.8965
H  -19.3571    1.0734    0.8795
H  -19.3576    1.0590   -0.9004
H  -20.6070   -1.0828   -0.8827
H  -20.6065   -1.0684    0.8972
H  -21.8556    1.0736    0.8803
H  -21.8561    1.0592   -0.8996
H  -23.1055   -1.0826   -0.8819
H  -23.1050   -1.0682    0.8980
H  -24.3540    1.0738    0.8810
H  -24.3546    1.0594   -0.8989
H  -25.6040   -1.0824   -0.8812
H  -25.6035   -1.0680    0.8987
H  -26.8525    1.0740    0.8818
H  -26.8531    1.0596   -0.8981
H  -28.1025   -1.0821   -0.8804
H  -28.1019   -1.0677    0.8995
H  -29.3510    1.0743    0.8825
H  -29.3515    1.0599   -0.8974
H  -30.6010   -1.0819   -0.8797
H  -30.6004   -1.0675    0.9002
H  -31.8495    1.0745    0.8833
H  -31.8500    1.0601   -0.8966
H  -33.0994   -1.0817   -0.8789
H  -33.0989   -1.0673    0.9010
H  -34.3480    1.0747    0.8840
H  -34.3485    1.0603   -0.8959
H  -35.5979   -1.0815   -0.8782
H  -35.5974   -1.0671    0.9017
H  -36.8464    1.0749    0.8848
H  -36.8470    1.0605   -0.8951
H  -38.0964   -1.0813   -0.8774
H  -38.0959   -1.0669    0.9025
H  -39.3449    1.0751    0.8855
H  -39.3455    1.0607   -0.8944
H  -40.5949   -1.0811   -0.8767
H  -40.5943   -1.0667    0.9032
H  -41.8434    1.0753    0.8863
H  -41.8439    1.0609   -0.8936
H  -43.0934   -1.0808   -0.8759
H  -43.0928   -1.0664    0.9040
H  -44.3419    1.0756    0.8870
H  -44.3424    1.0612   -0.8929
H  -45.5918   -1.0806   -0.8751
H  -45.5913   -1.0662    0.9048
H  -46.8404    1.0758    0.8878
H  -46.8409    1.0614   -0.8921
H  -48.0903   -1.0804   -0.8744
H  -48.0898   -1.0660    0.9055
H  -49.3388    1.0760    0.8885
H  -49.3394    1.0616   -0.8914
H  -50.5888   -1.0802   -0.8736
H  -50.5883   -1.0658    0.9063
H  -51.8373    1.0762    0.8893
H  -51.8379    1.0618   -0.8906
H  -53.0873   -1.0800   -0.8729
H  -53.0867   -1.0656    0.9070
H  -54.3358    1.0764    0.8901
H  -54.3363    1.0620   -0.8898
H  -55.5858   -1.0798   -0.8721
H  -55.5852   -1.0654    0.9078
H  -56.8343    1.0766    0.8908
H  -56.8348    1.0622   -0.8891
H  -58.0842   -1.0796   -0.8714
H  -58.0837   -1.0651    0.9085
H  -59.3328    1.0769    0.8916
H  -59.3333    1.0625   -0.8883
H  -60.5827   -1.0793   -0.8706
H  -60.5822   -1.0649    0.9093
H  -61.8312    1.0771    0.8923
H  -61.8318    1.0627   -0.8876
H  -63.0812   -1.0791   -0.8699
H  -63.0807   -1.0647    0.9100
H  -64.3297    1.0773    0.8931
H  -64.3303    1.0629   -0.8868
H  -65.5797   -1.0789   -0.8691
H  -65.5791   -1.0645    0.9108
H  -66.8282    1.0775    0.8938
H  -66.8287    1.0631   -0.8861
H  -68.0781   -1.0787   -0.8684
H  -68.0776   -1.0643    0.9115
H  -69.3267    1.0777    0.8946
H  -69.3272    1.0633   -0.8853
H  -70.5766   -1.0785   -0.8676
H  -70.5761   -1.0641    0.9123
H  -71.8251    1.0779    0.8953
H  -71.8257    1.0635   -0.8846
H  -73.0751   -1.0783   -0.8669
H  -73.0746   -1.0638    0.9131
H  -74.3236    1.0782    0.8961
H  -74.3242    1.0638   -0.8838
H  -75.2140   -0.1875    0.0166
