115
C38H76O
C   22.4822    0.3674   -0.0936
C   21.2497   -0.4996   -0.0720
C   20.0025    0.3866   -0.0872
C   18.7512   -0.4936   -0.0652
C   17.5040    0.3925   -0.0804
C   16.2527   -0.4876   -0.0584
C   15.0056    0.3985   -0.0736
C   13.7543   -0.4816   -0.0516
C   12.5071    0.4045   -0.0668
C   11.2558   -0.4757   -0.0448
C   10.0087    0.4105   -0.0599
C    8.7574   -0.4697   -0.0380
C    7.5102    0.4165   -0.0531
C    6.2589   -0.4637   -0.0312
C    5.0117    0.4224   -0.0463
C    3.7604   -0.4577   -0.0244
C    2.5133    0.4284   -0.0395
C    1.2620   -0.4517   -0.0176
C    0.0148    0.4344   -0.0327
C   -1.2365   -0.4458   -0.0108
C   -2.4837    0.4404   -0.0259
C   -3.7350   -0.4398   -0.0040
C   -4.9821    0.4464   -0.0191
C   -6.2334   -0.4338    0.0028
C   -7.4806    0.4523   -0.0123
C   -8.7319   -0.4278    0.0096
C   -9.9791    0.4583   -0.0055
C  -11.2303   -0.4218    0.0165
C  -12.4775    0.4643    0.0013
C  -13.7288   -0.4159    0.0233
C  -14.9760    0.4703    0.0081
C  -16.2273   -0.4099    0.0301
C  -17.4744    0.4763    0.0149
C  -18.7257   -0.4039    0.0369
C  -19.9729    0.4822    0.0217
C  -21.2242   -0.3979    0.0437
C  -22.4714    0.4882    0.0285
C  -23.7227   -0.3919    0.0505
O   23.3235    0.2422    0.7635
H   22.6151    1.0975   -0.8782
H   21.2457   -1.1474   -0.9486
H   21.2507   -1.1101    0.8310
H   20.0064    1.0344    0.7894
H   20.0015    0.9970   -0.9902
H   18.7473   -1.1415   -0.9418
H   18.7522   -1.1041    0.8378
H   17.5080    1.0404    0.7962
H   17.5030    1.0030   -0.9834
H   16.2488   -1.1355   -0.9350
H   16.2537   -1.0981    0.8446
H   15.0095    1.0464    0.8030
H   15.0046    1.0090   -0.9766
H   13.7503   -1.1295   -0.9282
H   13.7553   -1.0921    0.8514
H   12.5111    1.0524    0.8098
H   12.5061    1.0150   -0.9698
H   11.2519   -1.1235   -0.9214
H   11.2568   -1.0861    0.8582
H   10.0126    1.0583    0.8166
H   10.0077    1.0210   -0.9629
H    8.7534   -1.1175   -0.9145
H    8.7584   -1.0802    0.8650
H    7.5141    1.0643    0.8234
H    7.5092    1.0269   -0.9561
H    6.2550   -1.1116   -0.9077
H    6.2599   -1.0742    0.8718
H    5.0157    1.0703    0.8302
H    5.0107    1.0329   -0.9493
H    3.7565   -1.1056   -0.9009
H    3.7614   -1.0682    0.8786
H    2.5172    1.0763    0.8370
H    2.5123    1.0389   -0.9425
H    1.2580   -1.0996   -0.8941
H    1.2630   -1.0622    0.8854
H    0.0187    1.0823    0.8438
H    0.0138    1.0449   -0.9357
H   -1.2404   -1.0936   -0.8873
H   -1.2355   -1.0562    0.8922
H   -2.4797    1.0882    0.8506
H   -2.4847    1.0509   -0.9289
H   -3.7389   -1.0876   -0.8805
H   -3.7340   -1.0503    0.8990
H   -4.9782    1.0942    0.8574
H   -4.9831    1.0568   -0.9221
H   -6.2374   -1.0817   -0.8737
H   -6.2324   -1.0443    0.9058
H   -7.4766    1.1002    0.8642
H   -7.4816    1.0628   -0.9153
H   -8.7358   -1.0757   -0.8669
H   -8.7309   -1.0383    0.9126
H   -9.9751    1.1062    0.8711
H   -9.9800    1.0688   -0.9085
H  -11.2343   -1.0697   -0.8601
H  -11.2293   -1.0323    0.9195
H  -12.4736    1.1122    0.8779
H  -12.4785    1.0748   -0.9017
H  -13.7327   -1.0637   -0.8533
H  -13.7278   -1.0263    0.9263
H  -14.9720    1.1181    0.8847
H  -14.9770    1.0808   -0.8949
H  -16.2312   -1.0577   -0.8465
H  -16.2263   -1.0204    0.9331
H  -17.4705    1.1241    0.8915
H  -17.4754    1.0867   -0.8881
H  -18.7297   -1.0518   -0.8397
H  -18.7247   -1.0144    0.9399
H  -19.9690    1.1301    0.8983
H  -19.9739    1.0927   -0.8813
H  -21.2281   -1.0458   -0.8329
H  -21.2232   -1.0084    0.9467
H  -22.4674    1.1361    0.9051
H  -22.4724    1.0987   -0.8745
H  -23.7266   -1.0398   -0.8261
H  -23.7217   -1.0024    0.9535
H  -24.6112    0.2394    0.0397
