55
C18H36O
C   10.0039    0.3135   -0.1705
C    8.7652   -0.5438   -0.1284
C    7.5246    0.3514   -0.1440
C    6.2670   -0.5190   -0.1013
C    5.0263    0.3763   -0.1168
C    3.7688   -0.4941   -0.0741
C    2.5281    0.4011   -0.0897
C    1.2706   -0.4693   -0.0470
C    0.0299    0.4260   -0.0625
C   -1.2276   -0.4444   -0.0198
C   -2.4683    0.4508   -0.0354
C   -3.7258   -0.4196    0.0073
C   -4.9665    0.4757   -0.0083
C   -6.2241   -0.3947    0.0344
C   -7.4647    0.5005    0.0189
C   -8.7223   -0.3699    0.0616
C   -9.9629    0.5254    0.0460
C  -11.2205   -0.3450    0.0887
O   10.8513    0.1922    0.6812
H   10.1357    1.0333   -0.9648
H    8.7492   -1.2020   -0.9971
H    8.7691   -1.1435    0.7818
H    7.5405    1.0096    0.7247
H    7.5206    0.9511   -1.0542
H    6.2510   -1.1772   -0.9700
H    6.2709   -1.1186    0.8089
H    5.0423    1.0345    0.7519
H    5.0224    0.9760   -1.0270
H    3.7528   -1.1523   -0.9428
H    3.7727   -1.0938    0.8361
H    2.5441    1.0593    0.7790
H    2.5242    1.0008   -0.9999
H    1.2546   -1.1275   -0.9157
H    1.2745   -1.0690    0.8632
H    0.0459    1.0842    0.8061
H    0.0260    1.0257   -0.9727
H   -1.2436   -1.1026   -0.8885
H   -1.2237   -1.0441    0.8904
H   -2.4523    1.1090    0.8333
H   -2.4722    1.0505   -0.9456
H   -3.7418   -1.0778   -0.8614
H   -3.7219   -1.0193    0.9175
H   -4.9505    1.1339    0.8604
H   -4.9704    1.0753   -0.9185
H   -6.2400   -1.0529   -0.8342
H   -6.2201   -0.9944    0.9446
H   -7.4487    1.1587    0.8876
H   -7.4686    1.1002   -0.8913
H   -8.7382   -1.0281   -0.8071
H   -8.7183   -0.9696    0.9718
H   -9.9469    1.1836    0.9147
H   -9.9668    1.1250   -0.8642
H  -11.2365   -1.0032   -0.7800
H  -11.2165   -0.9447    0.9989
H  -12.1043    0.2927    0.0776
