145
C48H96O
C   28.7257    0.3791   -0.0763
C   27.4939   -0.4890   -0.0590
C   26.2460    0.3961   -0.0722
C   24.9954   -0.4852   -0.0546
C   23.7475    0.3999   -0.0679
C   22.4970   -0.4814   -0.0503
C   21.2490    0.4037   -0.0635
C   19.9985   -0.4776   -0.0459
C   18.7506    0.4075   -0.0591
C   17.5000   -0.4738   -0.0415
C   16.2521    0.4113   -0.0548
C   15.0016   -0.4700   -0.0372
C   13.7536    0.4151   -0.0504
C   12.5031   -0.4662   -0.0328
C   11.2552    0.4189   -0.0460
C   10.0046   -0.4624   -0.0284
C    8.7567    0.4227   -0.0417
C    7.5061   -0.4586   -0.0241
C    6.2582    0.4265   -0.0373
C    5.0077   -0.4548   -0.0197
C    3.7597    0.4303   -0.0329
C    2.5092   -0.4510   -0.0153
C    1.2613    0.4341   -0.0286
C    0.0107   -0.4472   -0.0110
C   -1.2372    0.4379   -0.0242
C   -2.4878   -0.4434   -0.0066
C   -3.7357    0.4417   -0.0198
C   -4.9862   -0.4397   -0.0023
C   -6.2342    0.4455   -0.0155
C   -7.4847   -0.4359    0.0021
C   -8.7326    0.4493   -0.0111
C   -9.9832   -0.4321    0.0065
C  -11.2311    0.4530   -0.0067
C  -12.4816   -0.4283    0.0108
C  -13.7296    0.4568   -0.0024
C  -14.9801   -0.4245    0.0152
C  -16.2280    0.4606    0.0020
C  -17.4786   -0.4207    0.0196
C  -18.7265    0.4644    0.0063
C  -19.9771   -0.4169    0.0239
C  -21.2250    0.4682    0.0107
C  -22.4755   -0.4131    0.0283
C  -23.7235    0.4720    0.0151
C  -24.9740   -0.4093    0.0327
C  -26.2219    0.4758    0.0194
C  -27.4725   -0.4055    0.0370
C  -28.7204    0.4796    0.0238
C  -29.9710   -0.4017    0.0414
O   29.5663    0.2516    0.7812
H   28.8587    1.1121   -0.8582
H   27.4914   -1.1337   -0.9379
H   27.4946   -1.1027    0.8418
H   26.2485    1.0408    0.8066
H   26.2454    1.0098   -0.9730
H   24.9929   -1.1299   -0.9335
H   24.9961   -1.0989    0.8462
H   23.7500    1.0446    0.8110
H   23.7469    1.0136   -0.9687
H   22.4945   -1.1261   -0.9291
H   22.4976   -1.0951    0.8506
H   21.2516    1.0484    0.8154
H   21.2484    1.0174   -0.9643
H   19.9960   -1.1224   -0.9248
H   19.9991   -1.0913    0.8549
H   18.7531    1.0522    0.8197
H   18.7499    1.0212   -0.9599
H   17.4975   -1.1186   -0.9204
H   17.5007   -1.0875    0.8593
H   16.2546    1.0560    0.8241
H   16.2515    1.0250   -0.9556
H   14.9990   -1.1148   -0.9160
H   15.0022   -1.0837    0.8636
H   13.7561    1.0598    0.8285
H   13.7530    1.0288   -0.9512
H   12.5006   -1.1110   -0.9117
H   12.5037   -1.0799    0.8680
H   11.2577    1.0636    0.8328
H   11.2545    1.0326   -0.9469
H   10.0021   -1.1072   -0.9073
H   10.0052   -1.0761    0.8724
H    8.7592    1.0674    0.8372
H    8.7560    1.0364   -0.9425
H    7.5036   -1.1034   -0.9029
H    7.5068   -1.0723    0.8767
H    6.2607    1.0712    0.8416
H    6.2576    1.0402   -0.9381
H    5.0051   -1.0996   -0.8986
H    5.0083   -1.0685    0.8811
H    3.7623    1.0750    0.8459
H    3.7591    1.0440   -0.9338
H    2.5067   -1.0958   -0.8942
H    2.5098   -1.0647    0.8855
H    1.2638    1.0788    0.8503
H    1.2606    1.0478   -0.9294
H    0.0082   -1.0920   -0.8899
H    0.0114   -1.0609    0.8898
H   -1.2347    1.0826    0.8547
H   -1.2378    1.0516   -0.9250
H   -2.4903   -1.0882   -0.8855
H   -2.4871   -1.0571    0.8942
H   -3.7332    1.0864    0.8590
H   -3.7363    1.0554   -0.9207
H   -4.9887   -1.0844   -0.8811
H   -4.9856   -1.0533    0.8986
H   -6.2316    1.0902    0.8634
H   -6.2348    1.0591   -0.9163
H   -7.4872   -1.0806   -0.8768
H   -7.4841   -1.0495    0.9029
H   -8.7301    1.0940    0.8678
H   -8.7333    1.0629   -0.9119
H   -9.9857   -1.0768   -0.8724
H   -9.9825   -1.0458    0.9073
H  -11.2286    1.0978    0.8721
H  -11.2317    1.0667   -0.9076
H  -12.4842   -1.0730   -0.8680
H  -12.4810   -1.0420    0.9117
H  -13.7271    1.1016    0.8765
H  -13.7302    1.0705   -0.9032
H  -14.9826   -1.0692   -0.8637
H  -14.9795   -1.0382    0.9160
H  -16.2255    1.1054    0.8808
H  -16.2287    1.0743   -0.8988
H  -17.4811   -1.0654   -0.8593
H  -17.4780   -1.0344    0.9204
H  -18.7240    1.1092    0.8852
H  -18.7272    1.0781   -0.8945
H  -19.9796   -1.0616   -0.8549
H  -19.9764   -1.0306    0.9248
H  -21.2225    1.1130    0.8896
H  -21.2256    1.0819   -0.8901
H  -22.4781   -1.0578   -0.8506
H  -22.4749   -1.0268    0.9291
H  -23.7209    1.1168    0.8939
H  -23.7241    1.0857   -0.8857
H  -24.9765   -1.0540   -0.8462
H  -24.9734   -1.0230    0.9335
H  -26.2194    1.1206    0.8983
H  -26.2226    1.0895   -0.8814
H  -27.4750   -1.0502   -0.8418
H  -27.4718   -1.0192    0.9379
H  -28.7179    1.1244    0.9027
H  -28.7210    1.0933   -0.8770
H  -29.9735   -1.0464   -0.8375
H  -29.9703   -1.0154    0.9422
H  -30.8600    0.2289    0.0320
