286
C95H190O
C   58.0777    0.4124   -0.0411
C   56.8471   -0.4574   -0.0317
C   55.5980    0.4261   -0.0400
C   54.3486   -0.4571   -0.0306
C   53.0995    0.4264   -0.0389
C   51.8501   -0.4567   -0.0294
C   50.6010    0.4267   -0.0377
C   49.3516   -0.4564   -0.0282
C   48.1025    0.4271   -0.0365
C   46.8532   -0.4561   -0.0271
C   45.6040    0.4274   -0.0354
C   44.3547   -0.4557   -0.0259
C   43.1056    0.4278   -0.0342
C   41.8562   -0.4554   -0.0247
C   40.6071    0.4281   -0.0330
C   39.3577   -0.4550   -0.0235
C   38.1086    0.4284   -0.0318
C   36.8593   -0.4547   -0.0224
C   35.6101    0.4288   -0.0307
C   34.3608   -0.4544   -0.0212
C   33.1116    0.4291   -0.0295
C   31.8623   -0.4540   -0.0200
C   30.6132    0.4294   -0.0283
C   29.3638   -0.4537   -0.0188
C   28.1147    0.4298   -0.0272
C   26.8653   -0.4533   -0.0177
C   25.6162    0.4301   -0.0260
C   24.3669   -0.4530   -0.0165
C   23.1177    0.4305   -0.0248
C   21.8684   -0.4527   -0.0153
C   20.6193    0.4308   -0.0236
C   19.3699   -0.4523   -0.0142
C   18.1208    0.4311   -0.0225
C   16.8714   -0.4520   -0.0130
C   15.6223    0.4315   -0.0213
C   14.3729   -0.4517   -0.0118
C   13.1238    0.4318   -0.0201
C   11.8745   -0.4513   -0.0106
C   10.6253    0.4322   -0.0189
C    9.3760   -0.4510   -0.0095
C    8.1269    0.4325   -0.0178
C    6.8775   -0.4506   -0.0083
C    5.6284    0.4328   -0.0166
C    4.3790   -0.4503   -0.0071
C    3.1299    0.4332   -0.0154
C    1.8805   -0.4500   -0.0059
C    0.6314    0.4335   -0.0143
C   -0.6179   -0.4496   -0.0048
C   -1.8671    0.4338   -0.0131
C   -3.1164   -0.4493   -0.0036
C   -4.3655    0.4342   -0.0119
C   -5.6149   -0.4489   -0.0024
C   -6.8640    0.4345   -0.0107
C   -8.1134   -0.4486   -0.0013
C   -9.3625    0.4349   -0.0096
C  -10.6119   -0.4483   -0.0001
C  -11.8610    0.4352   -0.0084
C  -13.1103   -0.4479    0.0011
C  -14.3595    0.4355   -0.0072
C  -15.6088   -0.4476    0.0023
C  -16.8579    0.4359   -0.0060
C  -18.1073   -0.4473    0.0034
C  -19.3564    0.4362   -0.0049
C  -20.6058   -0.4469    0.0046
C  -21.8549    0.4366   -0.0037
C  -23.1042   -0.4466    0.0058
C  -24.3534    0.4369   -0.0025
C  -25.6027   -0.4462    0.0070
C  -26.8519    0.4372   -0.0014
C  -28.1012   -0.4459    0.0081
C  -29.3503    0.4376   -0.0002
C  -30.5997   -0.4456    0.0093
C  -31.8488    0.4379    0.0010
C  -33.0982   -0.4452    0.0105
C  -34.3473    0.4382    0.0022
C  -35.5966   -0.4449    0.0116
C  -36.8458    0.4386    0.0033
C  -38.0951   -0.4445    0.0128
C  -39.3442    0.4389    0.0045
C  -40.5936   -0.4442    0.0140
C  -41.8427    0.4393    0.0057
C  -43.0921   -0.4439    0.0152
C  -44.3412    0.4396    0.0069
C  -45.5906   -0.4435    0.0163
C  -46.8397    0.4399    0.0080
C  -48.0890   -0.4432    0.0175
C  -49.3382    0.4403    0.0092
C  -50.5875   -0.4429    0.0187
C  -51.8366    0.4406    0.0104
C  -53.0860   -0.4425    0.0199
C  -54.3351    0.4410    0.0115
C  -55.5845   -0.4422    0.0210
C  -56.8336    0.4413    0.0127
C  -58.0830   -0.4418    0.0222
C  -59.3321    0.4416    0.0139
O   58.9174    0.2798    0.8166
H   58.2107    1.1514   -0.8173
H   56.8466   -1.0956   -0.9154
H   56.8474   -1.0777    0.8645
H   55.5985    1.0643    0.8436
H   55.5976    1.0464   -0.9363
H   54.3481   -1.0953   -0.9142
H   54.3489   -1.0774    0.8657
H   53.1000    1.0646    0.8447
H   53.0991    1.0467   -0.9351
H   51.8496   -1.0950   -0.9130
H   51.8505   -1.0771    0.8669
H   50.6015    1.0650    0.8459
H   50.6007    1.0471   -0.9340
H   49.3511   -1.0946   -0.9118
H   49.3520   -1.0767    0.8680
H   48.1030    1.0653    0.8471
H   48.1022    1.0474   -0.9328
H   46.8527   -1.0943   -0.9107
H   46.8535   -1.0764    0.8692
H   45.6045    1.0657    0.8482
H   45.6037    1.0477   -0.9316
H   44.3542   -1.0940   -0.9095
H   44.3550   -1.0760    0.8704
H   43.1061    1.0660    0.8494
H   43.1052    1.0481   -0.9305
H   41.8557   -1.0936   -0.9083
H   41.8565   -1.0757    0.8716
H   40.6076    1.0663    0.8506
H   40.6068    1.0484   -0.9293
H   39.3572   -1.0933   -0.9071
H   39.3581   -1.0754    0.8727
H   38.1091    1.0667    0.8518
H   38.1083    1.0488   -0.9281
H   36.8587   -1.0929   -0.9060
H   36.8596   -1.0750    0.8739
H   35.6106    1.0670    0.8529
H   35.6098    1.0491   -0.9269
H   34.3603   -1.0926   -0.9048
H   34.3611   -1.0747    0.8751
H   33.1121    1.0673    0.8541
H   33.1113    1.0494   -0.9258
H   31.8618   -1.0923   -0.9036
H   31.8626   -1.0743    0.8763
H   30.6137    1.0677    0.8553
H   30.6128    1.0498   -0.9246
H   29.3633   -1.0919   -0.9024
H   29.3642   -1.0740    0.8774
H   28.1152    1.0680    0.8565
H   28.1144    1.0501   -0.9234
H   26.8648   -1.0916   -0.9013
H   26.8657   -1.0737    0.8786
H   25.6167    1.0684    0.8576
H   25.6159    1.0504   -0.9222
H   24.3664   -1.0912   -0.9001
H   24.3672   -1.0733    0.8798
H   23.1182    1.0687    0.8588
H   23.1174    1.0508   -0.9211
H   21.8679   -1.0909   -0.8989
H   21.8687   -1.0730    0.8809
H   20.6198    1.0690    0.8600
H   20.6189    1.0511   -0.9199
H   19.3694   -1.0906   -0.8978
H   19.3702   -1.0727    0.8821
H   18.1213    1.0694    0.8611
H   18.1204    1.0515   -0.9187
H   16.8709   -1.0902   -0.8966
H   16.8718   -1.0723    0.8833
H   15.6228    1.0697    0.8623
H   15.6220    1.0518   -0.9176
H   14.3724   -1.0899   -0.8954
H   14.3733   -1.0720    0.8845
H   13.1243    1.0701    0.8635
H   13.1235    1.0521   -0.9164
H   11.8740   -1.0896   -0.8942
H   11.8748   -1.0716    0.8856
H   10.6258    1.0704    0.8647
H   10.6250    1.0525   -0.9152
H    9.3755   -1.0892   -0.8931
H    9.3763   -1.0713    0.8868
H    8.1274    1.0707    0.8658
H    8.1265    1.0528   -0.9140
H    6.8770   -1.0889   -0.8919
H    6.8778   -1.0710    0.8880
H    5.6289    1.0711    0.8670
H    5.6280    1.0532   -0.9129
H    4.3785   -1.0885   -0.8907
H    4.3794   -1.0706    0.8892
H    3.1304    1.0714    0.8682
H    3.1296    1.0535   -0.9117
H    1.8800   -1.0882   -0.8895
H    1.8809   -1.0703    0.8903
H    0.6319    1.0717    0.8694
H    0.6311    1.0538   -0.9105
H   -0.6184   -1.0879   -0.8884
H   -0.6176   -1.0699    0.8915
H   -1.8666    1.0721    0.8705
H   -1.8674    1.0542   -0.9093
H   -3.1169   -1.0875   -0.8872
H   -3.1161   -1.0696    0.8927
H   -4.3650    1.0724    0.8717
H   -4.3659    1.0545   -0.9082
H   -5.6154   -1.0872   -0.8860
H   -5.6146   -1.0693    0.8938
H   -6.8635    1.0728    0.8729
H   -6.8644    1.0548   -0.9070
H   -8.1139   -1.0868   -0.8849
H   -8.1130   -1.0689    0.8950
H   -9.3620    1.0731    0.8740
H   -9.3628    1.0552   -0.9058
H  -10.6124   -1.0865   -0.8837
H  -10.6115   -1.0686    0.8962
H  -11.8605    1.0734    0.8752
H  -11.8613    1.0555   -0.9047
H  -13.1108   -1.0862   -0.8825
H  -13.1100   -1.0683    0.8974
H  -14.3590    1.0738    0.8764
H  -14.3598    1.0559   -0.9035
H  -15.6093   -1.0858   -0.8813
H  -15.6085   -1.0679    0.8985
H  -16.8574    1.0741    0.8776
H  -16.8583    1.0562   -0.9023
H  -18.1078   -1.0855   -0.8802
H  -18.1070   -1.0676    0.8997
H  -19.3559    1.0745    0.8787
H  -19.3568    1.0565   -0.9011
H  -20.6063   -1.0852   -0.8790
H  -20.6054   -1.0672    0.9009
H  -21.8544    1.0748    0.8799
H  -21.8552    1.0569   -0.9000
H  -23.1047   -1.0848   -0.8778
H  -23.1039   -1.0669    0.9021
H  -24.3529    1.0751    0.8811
H  -24.3537    1.0572   -0.8988
H  -25.6032   -1.0845   -0.8766
H  -25.6024   -1.0666    0.9032
H  -26.8513    1.0755    0.8822
H  -26.8522    1.0575   -0.8976
H  -28.1017   -1.0841   -0.8755
H  -28.1009   -1.0662    0.9044
H  -29.3498    1.0758    0.8834
H  -29.3507    1.0579   -0.8965
H  -30.6002   -1.0838   -0.8743
H  -30.5993   -1.0659    0.9056
H  -31.8483    1.0761    0.8846
H  -31.8491    1.0582   -0.8953
H  -33.0987   -1.0835   -0.8731
H  -33.0978   -1.0655    0.9067
H  -34.3468    1.0765    0.8858
H  -34.3476    1.0586   -0.8941
H  -35.5971   -1.0831   -0.8720
H  -35.5963   -1.0652    0.9079
H  -36.8453    1.0768    0.8869
H  -36.8461    1.0589   -0.8929
H  -38.0956   -1.0828   -0.8708
H  -38.0948   -1.0649    0.9091
H  -39.3437    1.0772    0.8881
H  -39.3446    1.0592   -0.8918
H  -40.5941   -1.0825   -0.8696
H  -40.5933   -1.0645    0.9103
H  -41.8422    1.0775    0.8893
H  -41.8431    1.0596   -0.8906
H  -43.0926   -1.0821   -0.8684
H  -43.0917   -1.0642    0.9114
H  -44.3407    1.0778    0.8905
H  -44.3415    1.0599   -0.8894
H  -45.5911   -1.0818   -0.8673
H  -45.5902   -1.0639    0.9126
H  -46.8392    1.0782    0.8916
H  -46.8400    1.0603   -0.8882
H  -48.0895   -1.0814   -0.8661
H  -48.0887   -1.0635    0.9138
H  -49.3377    1.0785    0.8928
H  -49.3385    1.0606   -0.8871
H  -50.5880   -1.0811   -0.8649
H  -50.5872   -1.0632    0.9150
H  -51.8361    1.0789    0.8940
H  -51.8370    1.0609   -0.8859
H  -53.0865   -1.0808   -0.8637
H  -53.0857   -1.0628    0.9161
H  -54.3346    1.0792    0.8951
H  -54.3355    1.0613   -0.8847
H  -55.5850   -1.0804   -0.8626
H  -55.5841   -1.0625    0.9173
H  -56.8331    1.0795    0.8963
H  -56.8339    1.0616   -0.8836
H  -58.0835   -1.0801   -0.8614
H  -58.0826   -1.0622    0.9185
H  -60.2221   -0.1875    0.0206
H  -59.3316    1.0799    0.8975
H  -59.3324    1.0619   -0.8824
