226
C75H150O
C   45.5866    0.4083   -0.0513
C   44.3559   -0.4614   -0.0394
C   43.1069    0.4221   -0.0496
C   41.8574   -0.4609   -0.0376
C   40.6084    0.4227   -0.0478
C   39.3590   -0.4603   -0.0357
C   38.1099    0.4232   -0.0459
C   36.8605   -0.4598   -0.0338
C   35.6114    0.4237   -0.0441
C   34.3620   -0.4593   -0.0320
C   33.1130    0.4243   -0.0422
C   31.8635   -0.4587   -0.0301
C   30.6145    0.4248   -0.0404
C   29.3651   -0.4582   -0.0283
C   28.1160    0.4254   -0.0385
C   26.8666   -0.4576   -0.0264
C   25.6175    0.4259   -0.0366
C   24.3681   -0.4571   -0.0245
C   23.1190    0.4264   -0.0348
C   21.8696   -0.4566   -0.0227
C   20.6206    0.4270   -0.0329
C   19.3711   -0.4560   -0.0208
C   18.1221    0.4275   -0.0311
C   16.8727   -0.4555   -0.0190
C   15.6236    0.4281   -0.0292
C   14.3742   -0.4549   -0.0171
C   13.1251    0.4286   -0.0273
C   11.8757   -0.4544   -0.0152
C   10.6266    0.4291   -0.0255
C    9.3772   -0.4539   -0.0134
C    8.1282    0.4297   -0.0236
C    6.8787   -0.4533   -0.0115
C    5.6297    0.4302   -0.0218
C    4.3803   -0.4528   -0.0097
C    3.1312    0.4308   -0.0199
C    1.8818   -0.4522   -0.0078
C    0.6327    0.4313   -0.0180
C   -0.6167   -0.4517   -0.0059
C   -1.8657    0.4318   -0.0162
C   -3.1152   -0.4512   -0.0041
C   -4.3642    0.4324   -0.0143
C   -5.6137   -0.4506   -0.0022
C   -6.8627    0.4329   -0.0125
C   -8.1121   -0.4501   -0.0004
C   -9.3612    0.4335   -0.0106
C  -10.6106   -0.4496    0.0015
C  -11.8597    0.4340   -0.0087
C  -13.1091   -0.4490    0.0034
C  -14.3581    0.4345   -0.0069
C  -15.6076   -0.4485    0.0052
C  -16.8566    0.4351   -0.0050
C  -18.1060   -0.4479    0.0071
C  -19.3551    0.4356   -0.0032
C  -20.6045   -0.4474    0.0089
C  -21.8536    0.4362   -0.0013
C  -23.1030   -0.4469    0.0108
C  -24.3521    0.4367    0.0006
C  -25.6015   -0.4463    0.0127
C  -26.8505    0.4372    0.0024
C  -28.1000   -0.4458    0.0145
C  -29.3490    0.4378    0.0043
C  -30.5984   -0.4452    0.0164
C  -31.8475    0.4383    0.0061
C  -33.0969   -0.4447    0.0182
C  -34.3460    0.4389    0.0080
C  -35.5954   -0.4442    0.0201
C  -36.8445    0.4394    0.0099
C  -38.0939   -0.4436    0.0220
C  -39.3429    0.4399    0.0117
C  -40.5924   -0.4431    0.0238
C  -41.8414    0.4405    0.0136
C  -43.0908   -0.4425    0.0257
C  -44.3399    0.4410    0.0154
C  -45.5893   -0.4420    0.0275
C  -46.8384    0.4415    0.0173
O   46.4265    0.2778    0.8064
H   45.7194    1.1453   -0.8295
H   44.3551   -1.1019   -0.9214
H   44.3565   -1.0794    0.8584
H   43.1077    1.0626    0.8323
H   43.1063    1.0401   -0.9475
H   41.8567   -1.1014   -0.9195
H   41.8580   -1.0789    0.8603
H   40.6092    1.0632    0.8342
H   40.6079    1.0407   -0.9456
H   39.3582   -1.1008   -0.9177
H   39.3595   -1.0784    0.8622
H   38.1107    1.0637    0.8360
H   38.1094    1.0412   -0.9438
H   36.8597   -1.1003   -0.9158
H   36.8610   -1.0778    0.8640
H   35.6122    1.0642    0.8379
H   35.6109    1.0418   -0.9419
H   34.3612   -1.0998   -0.9139
H   34.3625   -1.0773    0.8659
H   33.1137    1.0648    0.8398
H   33.1124    1.0423   -0.9401
H   31.8627   -1.0992   -0.9121
H   31.8641   -1.0767    0.8677
H   30.6153    1.0653    0.8416
H   30.6139    1.0428   -0.9382
H   29.3643   -1.0987   -0.9102
H   29.3656   -1.0762    0.8696
H   28.1168    1.0659    0.8435
H   28.1155    1.0434   -0.9363
H   26.8658   -1.0981   -0.9084
H   26.8671   -1.0757    0.8715
H   25.6183    1.0664    0.8453
H   25.6170    1.0439   -0.9345
H   24.3673   -1.0976   -0.9065
H   24.3686   -1.0751    0.8733
H   23.1198    1.0669    0.8472
H   23.1185    1.0445   -0.9326
H   21.8688   -1.0971   -0.9046
H   21.8701   -1.0746    0.8752
H   20.6214    1.0675    0.8491
H   20.6200    1.0450   -0.9308
H   19.3703   -1.0965   -0.9028
H   19.3717   -1.0740    0.8770
H   18.1229    1.0680    0.8509
H   18.1215    1.0455   -0.9289
H   16.8719   -1.0960   -0.9009
H   16.8732   -1.0735    0.8789
H   15.6244    1.0686    0.8528
H   15.6231    1.0461   -0.9270
H   14.3734   -1.0955   -0.8991
H   14.3747   -1.0730    0.8808
H   13.1259    1.0691    0.8546
H   13.1246    1.0466   -0.9252
H   11.8749   -1.0949   -0.8972
H   11.8762   -1.0724    0.8826
H   10.6274    1.0696    0.8565
H   10.6261    1.0472   -0.9233
H    9.3764   -1.0944   -0.8953
H    9.3778   -1.0719    0.8845
H    8.1290    1.0702    0.8583
H    8.1276    1.0477   -0.9215
H    6.8779   -1.0938   -0.8935
H    6.8793   -1.0713    0.8863
H    5.6305    1.0707    0.8602
H    5.6292    1.0482   -0.9196
H    4.3795   -1.0933   -0.8916
H    4.3808   -1.0708    0.8882
H    3.1320    1.0713    0.8621
H    3.1307    1.0488   -0.9178
H    1.8810   -1.0928   -0.8898
H    1.8823   -1.0703    0.8901
H    0.6335    1.0718    0.8639
H    0.6322    1.0493   -0.9159
H   -0.6175   -1.0922   -0.8879
H   -0.6162   -1.0697    0.8919
H   -1.8650    1.0723    0.8658
H   -1.8663    1.0499   -0.9140
H   -3.1160   -1.0917   -0.8860
H   -3.1146   -1.0692    0.8938
H   -4.3634    1.0729    0.8676
H   -4.3648    1.0504   -0.9122
H   -5.6144   -1.0911   -0.8842
H   -5.6131   -1.0686    0.8956
H   -6.8619    1.0734    0.8695
H   -6.8632    1.0509   -0.9103
H   -8.1129   -1.0906   -0.8823
H   -8.1116   -1.0681    0.8975
H   -9.3604    1.0740    0.8714
H   -9.3617    1.0515   -0.9085
H  -10.6114   -1.0901   -0.8805
H  -10.6101   -1.0676    0.8994
H  -11.8589    1.0745    0.8732
H  -11.8602    1.0520   -0.9066
H  -13.1099   -1.0895   -0.8786
H  -13.1086   -1.0670    0.9012
H  -14.3573    1.0750    0.8751
H  -14.3587    1.0526   -0.9047
H  -15.6084   -1.0890   -0.8767
H  -15.6070   -1.0665    0.9031
H  -16.8558    1.0756    0.8769
H  -16.8572    1.0531   -0.9029
H  -18.1068   -1.0884   -0.8749
H  -18.1055   -1.0660    0.9049
H  -19.3543    1.0761    0.8788
H  -19.3556    1.0536   -0.9010
H  -20.6053   -1.0879   -0.8730
H  -20.6040   -1.0654    0.9068
H  -21.8528    1.0767    0.8807
H  -21.8541    1.0542   -0.8992
H  -23.1038   -1.0874   -0.8712
H  -23.1025   -1.0649    0.9087
H  -24.3513    1.0772    0.8825
H  -24.3526    1.0547   -0.8973
H  -25.6023   -1.0868   -0.8693
H  -25.6009   -1.0643    0.9105
H  -26.8497    1.0777    0.8844
H  -26.8511    1.0553   -0.8954
H  -28.1008   -1.0863   -0.8674
H  -28.0994   -1.0638    0.9124
H  -29.3482    1.0783    0.8862
H  -29.3496    1.0558   -0.8936
H  -30.5992   -1.0857   -0.8656
H  -30.5979   -1.0633    0.9142
H  -31.8467    1.0788    0.8881
H  -31.8480    1.0563   -0.8917
H  -33.0977   -1.0852   -0.8637
H  -33.0964   -1.0627    0.9161
H  -34.3452    1.0794    0.8900
H  -34.3465    1.0569   -0.8899
H  -35.5962   -1.0847   -0.8619
H  -35.5949   -1.0622    0.9180
H  -36.8437    1.0799    0.8918
H  -36.8450    1.0574   -0.8880
H  -38.0947   -1.0841   -0.8600
H  -38.0933   -1.0616    0.9198
H  -39.3421    1.0804    0.8937
H  -39.3435    1.0579   -0.8861
H  -40.5931   -1.0836   -0.8581
H  -40.5918   -1.0611    0.9217
H  -41.8406    1.0810    0.8955
H  -41.8419    1.0585   -0.8843
H  -43.0916   -1.0830   -0.8563
H  -43.0903   -1.0606    0.9235
H  -44.3391    1.0815    0.8974
H  -44.3404    1.0590   -0.8824
H  -45.5901   -1.0825   -0.8544
H  -45.5888   -1.0600    0.9254
H  -47.7285   -0.1875    0.0259
H  -46.8376    1.0821    0.8993
H  -46.8389    1.0596   -0.8806
