346
C115H230O
C   70.5692    0.4152   -0.0342
C   69.3387   -0.4547   -0.0266
C   68.0895    0.4287   -0.0336
C   66.8402   -0.4545   -0.0258
C   65.5910    0.4289   -0.0327
C   64.3417   -0.4543   -0.0250
C   63.0925    0.4291   -0.0319
C   61.8432   -0.4541   -0.0241
C   60.5941    0.4294   -0.0311
C   59.3447   -0.4538   -0.0233
C   58.0956    0.4296   -0.0303
C   56.8463   -0.4536   -0.0225
C   55.5971    0.4298   -0.0295
C   54.3478   -0.4534   -0.0217
C   53.0986    0.4301   -0.0287
C   51.8493   -0.4531   -0.0209
C   50.6002    0.4303   -0.0279
C   49.3508   -0.4529   -0.0201
C   48.1017    0.4305   -0.0271
C   46.8524   -0.4527   -0.0193
C   45.6032    0.4308   -0.0263
C   44.3539   -0.4524   -0.0185
C   43.1047    0.4310   -0.0255
C   41.8554   -0.4522   -0.0177
C   40.6062    0.4312   -0.0247
C   39.3569   -0.4520   -0.0169
C   38.1078    0.4315   -0.0239
C   36.8584   -0.4517   -0.0161
C   35.6093    0.4317   -0.0231
C   34.3600   -0.4515   -0.0153
C   33.1108    0.4319   -0.0223
C   31.8615   -0.4513   -0.0145
C   30.6123    0.4322   -0.0215
C   29.3630   -0.4510   -0.0137
C   28.1138    0.4324   -0.0207
C   26.8645   -0.4508   -0.0129
C   25.6154    0.4326   -0.0198
C   24.3660   -0.4506   -0.0121
C   23.1169    0.4329   -0.0190
C   21.8676   -0.4503   -0.0112
C   20.6184    0.4331   -0.0182
C   19.3691   -0.4501   -0.0104
C   18.1199    0.4333   -0.0174
C   16.8706   -0.4499   -0.0096
C   15.6214    0.4336   -0.0166
C   14.3721   -0.4496   -0.0088
C   13.1230    0.4338   -0.0158
C   11.8736   -0.4494   -0.0080
C   10.6245    0.4340   -0.0150
C    9.3752   -0.4492   -0.0072
C    8.1260    0.4342   -0.0142
C    6.8767   -0.4490   -0.0064
C    5.6275    0.4345   -0.0134
C    4.3782   -0.4487   -0.0056
C    3.1290    0.4347   -0.0126
C    1.8797   -0.4485   -0.0048
C    0.6306    0.4349   -0.0118
C   -0.6188   -0.4483   -0.0040
C   -1.8679    0.4352   -0.0110
C   -3.1172   -0.4480   -0.0032
C   -4.3664    0.4354   -0.0102
C   -5.6157   -0.4478   -0.0024
C   -6.8649    0.4356   -0.0094
C   -8.1142   -0.4476   -0.0016
C   -9.3634    0.4359   -0.0086
C  -10.6127   -0.4473   -0.0008
C  -11.8618    0.4361   -0.0078
C  -13.1112   -0.4471    0.0000
C  -14.3603    0.4363   -0.0069
C  -15.6096   -0.4469    0.0008
C  -16.8588    0.4366   -0.0061
C  -18.1081   -0.4466    0.0017
C  -19.3573    0.4368   -0.0053
C  -20.6066   -0.4464    0.0025
C  -21.8557    0.4370   -0.0045
C  -23.1051   -0.4462    0.0033
C  -24.3542    0.4373   -0.0037
C  -25.6035   -0.4459    0.0041
C  -26.8527    0.4375   -0.0029
C  -28.1020   -0.4457    0.0049
C  -29.3512    0.4377   -0.0021
C  -30.6005   -0.4455    0.0057
C  -31.8497    0.4380   -0.0013
C  -33.0990   -0.4452    0.0065
C  -34.3481    0.4382   -0.0005
C  -35.5975   -0.4450    0.0073
C  -36.8466    0.4384    0.0003
C  -38.0959   -0.4448    0.0081
C  -39.3451    0.4387    0.0011
C  -40.5944   -0.4445    0.0089
C  -41.8436    0.4389    0.0019
C  -43.0929   -0.4443    0.0097
C  -44.3421    0.4391    0.0027
C  -45.5914   -0.4441    0.0105
C  -46.8405    0.4393    0.0035
C  -48.0899   -0.4439    0.0113
C  -49.3390    0.4396    0.0043
C  -50.5883   -0.4436    0.0121
C  -51.8375    0.4398    0.0052
C  -53.0868   -0.4434    0.0129
C  -54.3360    0.4400    0.0060
C  -55.5853   -0.4432    0.0138
C  -56.8345    0.4403    0.0068
C  -58.0838   -0.4429    0.0146
C  -59.3329    0.4405    0.0076
C  -60.5823   -0.4427    0.0154
C  -61.8314    0.4407    0.0084
C  -63.0807   -0.4425    0.0162
C  -64.3299    0.4410    0.0092
C  -65.5792   -0.4422    0.0170
C  -66.8284    0.4412    0.0100
C  -68.0777   -0.4420    0.0178
C  -69.3269    0.4414    0.0108
C  -70.5762   -0.4418    0.0186
C  -71.8253    0.4417    0.0116
O   71.4088    0.2811    0.8233
H   70.7023    1.1555   -0.8092
H   69.3383   -1.0915   -0.9113
H   69.3389   -1.0766    0.8686
H   68.0899    1.0654    0.8511
H   68.0893    1.0505   -0.9288
H   66.8398   -1.0912   -0.9105
H   66.8404   -1.0764    0.8695
H   65.5914    1.0656    0.8519
H   65.5908    1.0508   -0.9280
H   64.3414   -1.0910   -0.9096
H   64.3419   -1.0761    0.8703
H   63.0929    1.0659    0.8527
H   63.0923    1.0510   -0.9272
H   61.8429   -1.0908   -0.9088
H   61.8435   -1.0759    0.8711
H   60.5944    1.0661    0.8536
H   60.5938    1.0512   -0.9263
H   59.3444   -1.0906   -0.9080
H   59.3450   -1.0757    0.8719
H   58.0959    1.0663    0.8544
H   58.0954    1.0515   -0.9255
H   56.8459   -1.0903   -0.9072
H   56.8465   -1.0754    0.8727
H   55.5975    1.0666    0.8552
H   55.5969    1.0517   -0.9247
H   54.3474   -1.0901   -0.9064
H   54.3480   -1.0752    0.8735
H   53.0990    1.0668    0.8560
H   53.0984    1.0519   -0.9239
H   51.8490   -1.0899   -0.9056
H   51.8495   -1.0750    0.8743
H   50.6005    1.0670    0.8568
H   50.5999    1.0522   -0.9231
H   49.3505   -1.0896   -0.9048
H   49.3511   -1.0747    0.8751
H   48.1020    1.0673    0.8576
H   48.1014    1.0524   -0.9223
H   46.8520   -1.0894   -0.9040
H   46.8526   -1.0745    0.8759
H   45.6035    1.0675    0.8584
H   45.6030    1.0526   -0.9215
H   44.3535   -1.0892   -0.9032
H   44.3541   -1.0743    0.8767
H   43.1051    1.0677    0.8592
H   43.1045    1.0528   -0.9207
H   41.8550   -1.0889   -0.9024
H   41.8556   -1.0740    0.8775
H   40.6066    1.0680    0.8600
H   40.6060    1.0531   -0.9199
H   39.3566   -1.0887   -0.9016
H   39.3571   -1.0738    0.8783
H   38.1081    1.0682    0.8608
H   38.1075    1.0533   -0.9191
H   36.8581   -1.0885   -0.9008
H   36.8587   -1.0736    0.8791
H   35.6096    1.0684    0.8616
H   35.6090    1.0535   -0.9183
H   34.3596   -1.0882   -0.9000
H   34.3602   -1.0733    0.8799
H   33.1111    1.0687    0.8624
H   33.1106    1.0538   -0.9175
H   31.8611   -1.0880   -0.8992
H   31.8617   -1.0731    0.8807
H   30.6127    1.0689    0.8632
H   30.6121    1.0540   -0.9167
H   29.3627   -1.0878   -0.8984
H   29.3632   -1.0729    0.8815
H   28.1142    1.0691    0.8640
H   28.1136    1.0542   -0.9159
H   26.8642   -1.0875   -0.8975
H   26.8647   -1.0727    0.8824
H   25.6157    1.0694    0.8648
H   25.6151    1.0545   -0.9151
H   24.3657   -1.0873   -0.8967
H   24.3663   -1.0724    0.8832
H   23.1172    1.0696    0.8656
H   23.1166    1.0547   -0.9143
H   21.8672   -1.0871   -0.8959
H   21.8678   -1.0722    0.8840
H   20.6187    1.0698    0.8665
H   20.6182    1.0549   -0.9134
H   19.3687   -1.0868   -0.8951
H   19.3693   -1.0720    0.8848
H   18.1203    1.0701    0.8673
H   18.1197    1.0552   -0.9126
H   16.8703   -1.0866   -0.8943
H   16.8708   -1.0717    0.8856
H   15.6218    1.0703    0.8681
H   15.6212    1.0554   -0.9118
H   14.3718   -1.0864   -0.8935
H   14.3724   -1.0715    0.8864
H   13.1233    1.0705    0.8689
H   13.1227    1.0556   -0.9110
H   11.8733   -1.0861   -0.8927
H   11.8739   -1.0713    0.8872
H   10.6248    1.0707    0.8697
H   10.6243    1.0559   -0.9102
H    9.3748   -1.0859   -0.8919
H    9.3754   -1.0710    0.8880
H    8.1263    1.0710    0.8705
H    8.1258    1.0561   -0.9094
H    6.8763   -1.0857   -0.8911
H    6.8769   -1.0708    0.8888
H    5.6279    1.0712    0.8713
H    5.6273    1.0563   -0.9086
H    4.3779   -1.0855   -0.8903
H    4.3784   -1.0706    0.8896
H    3.1294    1.0714    0.8721
H    3.1288    1.0566   -0.9078
H    1.8794   -1.0852   -0.8895
H    1.8800   -1.0703    0.8904
H    0.6309    1.0717    0.8729
H    0.6303    1.0568   -0.9070
H   -0.6191   -1.0850   -0.8887
H   -0.6185   -1.0701    0.8912
H   -1.8676    1.0719    0.8737
H   -1.8681    1.0570   -0.9062
H   -3.1176   -1.0848   -0.8879
H   -3.1170   -1.0699    0.8920
H   -4.3660    1.0721    0.8745
H   -4.3666    1.0573   -0.9054
H   -5.6161   -1.0845   -0.8871
H   -5.6155   -1.0696    0.8928
H   -6.8645    1.0724    0.8753
H   -6.8651    1.0575   -0.9046
H   -8.1145   -1.0843   -0.8863
H   -8.1140   -1.0694    0.8936
H   -9.3630    1.0726    0.8761
H   -9.3636    1.0577   -0.9038
H  -10.6130   -1.0841   -0.8854
H  -10.6124   -1.0692    0.8945
H  -11.8615    1.0728    0.8769
H  -11.8621    1.0579   -0.9030
H  -13.1115   -1.0838   -0.8846
H  -13.1109   -1.0689    0.8953
H  -14.3600    1.0731    0.8777
H  -14.3605    1.0582   -0.9022
H  -15.6100   -1.0836   -0.8838
H  -15.6094   -1.0687    0.8961
H  -16.8584    1.0733    0.8785
H  -16.8590    1.0584   -0.9014
H  -18.1085   -1.0834   -0.8830
H  -18.1079   -1.0685    0.8969
H  -19.3569    1.0735    0.8794
H  -19.3575    1.0586   -0.9005
H  -20.6069   -1.0831   -0.8822
H  -20.6064   -1.0682    0.8977
H  -21.8554    1.0738    0.8802
H  -21.8560    1.0589   -0.8997
H  -23.1054   -1.0829   -0.8814
H  -23.1048   -1.0680    0.8985
H  -24.3539    1.0740    0.8810
H  -24.3545    1.0591   -0.8989
H  -25.6039   -1.0827   -0.8806
H  -25.6033   -1.0678    0.8993
H  -26.8524    1.0742    0.8818
H  -26.8529    1.0593   -0.8981
H  -28.1024   -1.0824   -0.8798
H  -28.1018   -1.0676    0.9001
H  -29.3508    1.0745    0.8826
H  -29.3514    1.0596   -0.8973
H  -30.6009   -1.0822   -0.8790
H  -30.6003   -1.0673    0.9009
H  -31.8493    1.0747    0.8834
H  -31.8499    1.0598   -0.8965
H  -33.0993   -1.0820   -0.8782
H  -33.0988   -1.0671    0.9017
H  -34.3478    1.0749    0.8842
H  -34.3484    1.0600   -0.8957
H  -35.5978   -1.0817   -0.8774
H  -35.5972   -1.0669    0.9025
H  -36.8463    1.0752    0.8850
H  -36.8469    1.0603   -0.8949
H  -38.0963   -1.0815   -0.8766
H  -38.0957   -1.0666    0.9033
H  -39.3448    1.0754    0.8858
H  -39.3453    1.0605   -0.8941
H  -40.5948   -1.0813   -0.8758
H  -40.5942   -1.0664    0.9041
H  -41.8432    1.0756    0.8866
H  -41.8438    1.0607   -0.8933
H  -43.0932   -1.0811   -0.8750
H  -43.0927   -1.0662    0.9049
H  -44.3417    1.0759    0.8874
H  -44.3423    1.0610   -0.8925
H  -45.5917   -1.0808   -0.8742
H  -45.5912   -1.0659    0.9057
H  -46.8402    1.0761    0.8882
H  -46.8408    1.0612   -0.8917
H  -48.0902   -1.0806   -0.8734
H  -48.0896   -1.0657    0.9065
H  -49.3387    1.0763    0.8890
H  -49.3393    1.0614   -0.8909
H  -50.5887   -1.0804   -0.8725
H  -50.5881   -1.0655    0.9074
H  -51.8372    1.0765    0.8898
H  -51.8377    1.0617   -0.8901
H  -53.0872   -1.0801   -0.8717
H  -53.0866   -1.0652    0.9082
H  -54.3356    1.0768    0.8906
H  -54.3362    1.0619   -0.8893
H  -55.5856   -1.0799   -0.8709
H  -55.5851   -1.0650    0.9090
H  -56.8341    1.0770    0.8914
H  -56.8347    1.0621   -0.8885
H  -58.0841   -1.0797   -0.8701
H  -58.0835   -1.0648    0.9098
H  -59.3326    1.0772    0.8923
H  -59.3332    1.0623   -0.8876
H  -60.5826   -1.0794   -0.8693
H  -60.5820   -1.0645    0.9106
H  -61.8311    1.0775    0.8931
H  -61.8316    1.0626   -0.8868
H  -63.0811   -1.0792   -0.8685
H  -63.0805   -1.0643    0.9114
H  -64.3296    1.0777    0.8939
H  -64.3301    1.0628   -0.8860
H  -65.5796   -1.0790   -0.8677
H  -65.5790   -1.0641    0.9122
H  -66.8280    1.0779    0.8947
H  -66.8286    1.0630   -0.8852
H  -68.0780   -1.0787   -0.8669
H  -68.0775   -1.0638    0.9130
H  -69.3265    1.0782    0.8955
H  -69.3271    1.0633   -0.8844
H  -70.5765   -1.0785   -0.8661
H  -70.5759   -1.0636    0.9138
H  -72.7154   -0.1875    0.0172
H  -71.8250    1.0784    0.8963
H  -71.8256    1.0635   -0.8836
