316
C105H210O
C   64.3234    0.4139   -0.0373
C   63.0928   -0.4560   -0.0289
C   61.8437    0.4275   -0.0365
C   60.5944   -0.4557   -0.0280
C   59.3452    0.4278   -0.0356
C   58.0959   -0.4554   -0.0270
C   56.8467    0.4280   -0.0346
C   55.5974   -0.4551   -0.0260
C   54.3483    0.4283   -0.0336
C   53.0989   -0.4548   -0.0251
C   51.8498    0.4286   -0.0327
C   50.6004   -0.4546   -0.0241
C   49.3513    0.4289   -0.0317
C   48.1020   -0.4543   -0.0231
C   46.8528    0.4292   -0.0307
C   45.6035   -0.4540   -0.0222
C   44.3543    0.4294   -0.0298
C   43.1050   -0.4537   -0.0212
C   41.8559    0.4297   -0.0288
C   40.6065   -0.4535   -0.0203
C   39.3574    0.4300   -0.0278
C   38.1080   -0.4532   -0.0193
C   36.8589    0.4303   -0.0269
C   35.6096   -0.4529   -0.0183
C   34.3604    0.4305   -0.0259
C   33.1111   -0.4526   -0.0174
C   31.8619    0.4308   -0.0249
C   30.6126   -0.4523   -0.0164
C   29.3635    0.4311   -0.0240
C   28.1141   -0.4521   -0.0154
C   26.8650    0.4314   -0.0230
C   25.6156   -0.4518   -0.0145
C   24.3665    0.4317   -0.0221
C   23.1172   -0.4515   -0.0135
C   21.8680    0.4319   -0.0211
C   20.6187   -0.4512   -0.0125
C   19.3695    0.4322   -0.0201
C   18.1202   -0.4510   -0.0116
C   16.8711    0.4325   -0.0192
C   15.6217   -0.4507   -0.0106
C   14.3726    0.4328   -0.0182
C   13.1233   -0.4504   -0.0096
C   11.8741    0.4330   -0.0172
C   10.6248   -0.4501   -0.0087
C    9.3756    0.4333   -0.0163
C    8.1263   -0.4498   -0.0077
C    6.8771    0.4336   -0.0153
C    5.6278   -0.4496   -0.0068
C    4.3787    0.4339   -0.0143
C    3.1293   -0.4493   -0.0058
C    1.8802    0.4342   -0.0134
C    0.6309   -0.4490   -0.0048
C   -0.6183    0.4344   -0.0124
C   -1.8676   -0.4487   -0.0039
C   -3.1168    0.4347   -0.0115
C   -4.3661   -0.4485   -0.0029
C   -5.6152    0.4350   -0.0105
C   -6.8646   -0.4482   -0.0019
C   -8.1137    0.4353   -0.0095
C   -9.3631   -0.4479   -0.0010
C  -10.6122    0.4355   -0.0086
C  -11.8615   -0.4476   -0.0000
C  -13.1107    0.4358   -0.0076
C  -14.3600   -0.4473    0.0010
C  -15.6092    0.4361   -0.0066
C  -16.8585   -0.4471    0.0019
C  -18.1076    0.4364   -0.0057
C  -19.3570   -0.4468    0.0029
C  -20.6061    0.4367   -0.0047
C  -21.8555   -0.4465    0.0038
C  -23.1046    0.4369   -0.0037
C  -24.3539   -0.4462    0.0048
C  -25.6031    0.4372   -0.0028
C  -26.8524   -0.4460    0.0058
C  -28.1016    0.4375   -0.0018
C  -29.3509   -0.4457    0.0067
C  -30.6000    0.4378   -0.0009
C  -31.8494   -0.4454    0.0077
C  -33.0985    0.4380    0.0001
C  -34.3479   -0.4451    0.0087
C  -35.5970    0.4383    0.0011
C  -36.8463   -0.4449    0.0096
C  -38.0955    0.4386    0.0020
C  -39.3448   -0.4446    0.0106
C  -40.5940    0.4389    0.0030
C  -41.8433   -0.4443    0.0116
C  -43.0924    0.4392    0.0040
C  -44.3418   -0.4440    0.0125
C  -45.5909    0.4394    0.0049
C  -46.8402   -0.4437    0.0135
C  -48.0894    0.4397    0.0059
C  -49.3387   -0.4435    0.0145
C  -50.5879    0.4400    0.0069
C  -51.8372   -0.4432    0.0154
C  -53.0864    0.4403    0.0078
C  -54.3357   -0.4429    0.0164
C  -55.5848    0.4405    0.0088
C  -56.8342   -0.4426    0.0173
C  -58.0833    0.4408    0.0098
C  -59.3326   -0.4424    0.0183
C  -60.5818    0.4411    0.0107
C  -61.8311   -0.4421    0.0193
C  -63.0803    0.4414    0.0117
C  -64.3296   -0.4418    0.0202
C  -65.5788    0.4417    0.0126
O   65.1630    0.2805    0.8203
H   64.4565    1.1537   -0.8129
H   63.0924   -1.0934   -0.9131
H   63.0931   -1.0771    0.8668
H   61.8441    1.0649    0.8477
H   61.8434    1.0486   -0.9322
H   60.5939   -1.0931   -0.9122
H   60.5946   -1.0768    0.8677
H   59.3456    1.0652    0.8486
H   59.3449    1.0489   -0.9312
H   58.0955   -1.0928   -0.9112
H   58.0962   -1.0766    0.8687
H   56.8471    1.0655    0.8496
H   56.8465    1.0492   -0.9303
H   55.5970   -1.0925   -0.9102
H   55.5977   -1.0763    0.8697
H   54.3487    1.0657    0.8506
H   54.3480    1.0495   -0.9293
H   53.0985   -1.0923   -0.9093
H   53.0992   -1.0760    0.8706
H   51.8502    1.0660    0.8515
H   51.8495    1.0498   -0.9284
H   50.6000   -1.0920   -0.9083
H   50.6007   -1.0757    0.8716
H   49.3517    1.0663    0.8525
H   49.3510    1.0500   -0.9274
H   48.1016   -1.0917   -0.9073
H   48.1022   -1.0754    0.8725
H   46.8532    1.0666    0.8535
H   46.8525    1.0503   -0.9264
H   45.6031   -1.0914   -0.9064
H   45.6038   -1.0752    0.8735
H   44.3548    1.0669    0.8544
H   44.3541    1.0506   -0.9255
H   43.1046   -1.0911   -0.9054
H   43.1053   -1.0749    0.8745
H   41.8563    1.0671    0.8554
H   41.8556    1.0509   -0.9245
H   40.6061   -1.0909   -0.9044
H   40.6068   -1.0746    0.8754
H   39.3578    1.0674    0.8564
H   39.3571    1.0511   -0.9235
H   38.1076   -1.0906   -0.9035
H   38.1083   -1.0743    0.8764
H   36.8593    1.0677    0.8573
H   36.8586    1.0514   -0.9226
H   35.6092   -1.0903   -0.9025
H   35.6098   -1.0741    0.8774
H   34.3608    1.0680    0.8583
H   34.3601    1.0517   -0.9216
H   33.1107   -1.0900   -0.9016
H   33.1114   -1.0738    0.8783
H   31.8624    1.0682    0.8592
H   31.8617    1.0520   -0.9206
H   30.6122   -1.0898   -0.9006
H   30.6129   -1.0735    0.8793
H   29.3639    1.0685    0.8602
H   29.3632    1.0523   -0.9197
H   28.1137   -1.0895   -0.8996
H   28.1144   -1.0732    0.8803
H   26.8654    1.0688    0.8612
H   26.8647    1.0525   -0.9187
H   25.6152   -1.0892   -0.8987
H   25.6159   -1.0729    0.8812
H   24.3669    1.0691    0.8621
H   24.3662    1.0528   -0.9177
H   23.1168   -1.0889   -0.8977
H   23.1174   -1.0727    0.8822
H   21.8684    1.0694    0.8631
H   21.8677    1.0531   -0.9168
H   20.6183   -1.0887   -0.8967
H   20.6190   -1.0724    0.8832
H   19.3700    1.0696    0.8641
H   19.3693    1.0534   -0.9158
H   18.1198   -1.0884   -0.8958
H   18.1205   -1.0721    0.8841
H   16.8715    1.0699    0.8650
H   16.8708    1.0536   -0.9149
H   15.6213   -1.0881   -0.8948
H   15.6220   -1.0718    0.8851
H   14.3730    1.0702    0.8660
H   14.3723    1.0539   -0.9139
H   13.1228   -1.0878   -0.8938
H   13.1235   -1.0716    0.8860
H   11.8745    1.0705    0.8670
H   11.8738    1.0542   -0.9129
H   10.6244   -1.0875   -0.8929
H   10.6251   -1.0713    0.8870
H    9.3760    1.0707    0.8679
H    9.3754    1.0545   -0.9120
H    8.1259   -1.0873   -0.8919
H    8.1266   -1.0710    0.8880
H    6.8776    1.0710    0.8689
H    6.8769    1.0548   -0.9110
H    5.6274   -1.0870   -0.8910
H    5.6281   -1.0707    0.8889
H    4.3791    1.0713    0.8698
H    4.3784    1.0550   -0.9100
H    3.1289   -1.0867   -0.8900
H    3.1296   -1.0704    0.8899
H    1.8806    1.0716    0.8708
H    1.8799    1.0553   -0.9091
H    0.6304   -1.0864   -0.8890
H    0.6311   -1.0702    0.8909
H   -0.6179    1.0718    0.8718
H   -0.6186    1.0556   -0.9081
H   -1.8680   -1.0862   -0.8881
H   -1.8673   -1.0699    0.8918
H   -3.1164    1.0721    0.8727
H   -3.1170    1.0559   -0.9071
H   -4.3665   -1.0859   -0.8871
H   -4.3658   -1.0696    0.8928
H   -5.6148    1.0724    0.8737
H   -5.6155    1.0561   -0.9062
H   -6.8650   -1.0856   -0.8861
H   -6.8643   -1.0693    0.8938
H   -8.1133    1.0727    0.8747
H   -8.1140    1.0564   -0.9052
H   -9.3635   -1.0853   -0.8852
H   -9.3628   -1.0691    0.8947
H  -10.6118    1.0730    0.8756
H  -10.6125    1.0567   -0.9043
H  -11.8620   -1.0850   -0.8842
H  -11.8613   -1.0688    0.8957
H  -13.1103    1.0732    0.8766
H  -13.1110    1.0570   -0.9033
H  -14.3604   -1.0848   -0.8832
H  -14.3597   -1.0685    0.8967
H  -15.6088    1.0735    0.8776
H  -15.6094    1.0573   -0.9023
H  -16.8589   -1.0845   -0.8823
H  -16.8582   -1.0682    0.8976
H  -18.1072    1.0738    0.8785
H  -18.1079    1.0575   -0.9014
H  -19.3574   -1.0842   -0.8813
H  -19.3567   -1.0679    0.8986
H  -20.6057    1.0741    0.8795
H  -20.6064    1.0578   -0.9004
H  -21.8559   -1.0839   -0.8803
H  -21.8552   -1.0677    0.8995
H  -23.1042    1.0743    0.8805
H  -23.1049    1.0581   -0.8994
H  -24.3543   -1.0837   -0.8794
H  -24.3537   -1.0674    0.9005
H  -25.6027    1.0746    0.8814
H  -25.6034    1.0584   -0.8985
H  -26.8528   -1.0834   -0.8784
H  -26.8521   -1.0671    0.9015
H  -28.1011    1.0749    0.8824
H  -28.1018    1.0586   -0.8975
H  -29.3513   -1.0831   -0.8775
H  -29.3506   -1.0668    0.9024
H  -30.5996    1.0752    0.8833
H  -30.6003    1.0589   -0.8965
H  -31.8498   -1.0828   -0.8765
H  -31.8491   -1.0666    0.9034
H  -33.0981    1.0755    0.8843
H  -33.0988    1.0592   -0.8956
H  -34.3483   -1.0825   -0.8755
H  -34.3476   -1.0663    0.9044
H  -35.5966    1.0757    0.8853
H  -35.5973    1.0595   -0.8946
H  -36.8467   -1.0823   -0.8746
H  -36.8461   -1.0660    0.9053
H  -38.0951    1.0760    0.8862
H  -38.0958    1.0597   -0.8937
H  -39.3452   -1.0820   -0.8736
H  -39.3445   -1.0657    0.9063
H  -40.5935    1.0763    0.8872
H  -40.5942    1.0600   -0.8927
H  -41.8437   -1.0817   -0.8726
H  -41.8430   -1.0654    0.9073
H  -43.0920    1.0766    0.8882
H  -43.0927    1.0603   -0.8917
H  -44.3422   -1.0814   -0.8717
H  -44.3415   -1.0652    0.9082
H  -45.5905    1.0768    0.8891
H  -45.5912    1.0606   -0.8908
H  -46.8407   -1.0812   -0.8707
H  -46.8400   -1.0649    0.9092
H  -48.0890    1.0771    0.8901
H  -48.0897    1.0609   -0.8898
H  -49.3391   -1.0809   -0.8697
H  -49.3385   -1.0646    0.9101
H  -50.5875    1.0774    0.8911
H  -50.5882    1.0611   -0.8888
H  -51.8376   -1.0806   -0.8688
H  -51.8369   -1.0643    0.9111
H  -53.0859    1.0777    0.8920
H  -53.0866    1.0614   -0.8879
H  -54.3361   -1.0803   -0.8678
H  -54.3354   -1.0641    0.9121
H  -55.5844    1.0780    0.8930
H  -55.5851    1.0617   -0.8869
H  -56.8346   -1.0801   -0.8668
H  -56.8339   -1.0638    0.9130
H  -58.0829    1.0782    0.8939
H  -58.0836    1.0620   -0.8859
H  -59.3331   -1.0798   -0.8659
H  -59.3324   -1.0635    0.9140
H  -60.5814    1.0785    0.8949
H  -60.5821    1.0622   -0.8850
H  -61.8315   -1.0795   -0.8649
H  -61.8308   -1.0632    0.9150
H  -63.0799    1.0788    0.8959
H  -63.0805    1.0625   -0.8840
H  -64.3300   -1.0792   -0.8640
H  -64.3293   -1.0629    0.9159
H  -65.5783    1.0791    0.8968
H  -65.5790    1.0628   -0.8831
H  -66.4688   -0.1875    0.0187
