43
C14H28O
C    7.5127    0.2901   -0.2032
C    6.2693   -0.5599   -0.1521
C    5.0338    0.3426   -0.1613
C    3.7715   -0.5204   -0.1095
C    2.5360    0.3821   -0.1187
C    1.2737   -0.4809   -0.0669
C    0.0382    0.4216   -0.0761
C   -1.2241   -0.4414   -0.0243
C   -2.4596    0.4611   -0.0334
C   -3.7219   -0.4019    0.0184
C   -4.9574    0.5006    0.0092
C   -6.2197   -0.3624    0.0610
C   -7.4552    0.5401    0.0518
C   -8.7175   -0.3229    0.1036
O    8.3647    0.1651    0.6434
H    7.6438    1.0079   -0.9994
H    6.2441   -1.2192   -1.0197
H    6.2754   -1.1583    0.7589
H    5.0591    1.0019    0.7063
H    5.0277    0.9410   -1.0724
H    3.7463   -1.1797   -0.9771
H    3.7776   -1.1188    0.8015
H    2.5613    1.0414    0.7489
H    2.5299    0.9805   -1.0297
H    1.2485   -1.1402   -0.9345
H    1.2798   -1.0793    0.8442
H    0.0634    1.0809    0.7915
H    0.0321    1.0200   -0.9871
H   -1.2494   -1.1007   -0.8919
H   -1.2180   -1.0398    0.8868
H   -2.4344    1.1204    0.8342
H   -2.4657    1.0595   -0.9445
H   -3.7472   -1.0612   -0.8492
H   -3.7158   -1.0003    0.9294
H   -4.9322    1.1599    0.8768
H   -4.9635    1.0989   -0.9019
H   -6.2450   -1.0217   -0.8066
H   -6.2136   -0.9608    0.9720
H   -7.4300    1.1994    0.9194
H   -7.4613    1.1384   -0.8592
H   -8.7428   -0.9822   -0.7640
H   -8.7114   -0.9213    1.0147
H   -9.5977    0.3200    0.0971
