103
C34H68O
C   19.9852    0.3610   -0.1030
C   18.7522   -0.5052   -0.0790
C   17.5056    0.3816   -0.0949
C   16.2538   -0.4978   -0.0706
C   15.0071    0.3890   -0.0866
C   13.7553   -0.4904   -0.0622
C   12.5087    0.3964   -0.0782
C   11.2569   -0.4830   -0.0538
C   10.0102    0.4038   -0.0698
C    8.7584   -0.4756   -0.0454
C    7.5117    0.4113   -0.0614
C    6.2600   -0.4681   -0.0370
C    5.0133    0.4187   -0.0530
C    3.7615   -0.4607   -0.0286
C    2.5148    0.4261   -0.0446
C    1.2631   -0.4533   -0.0202
C    0.0164    0.4335   -0.0362
C   -1.2354   -0.4459   -0.0118
C   -2.4821    0.4409   -0.0278
C   -3.7339   -0.4385   -0.0034
C   -4.9805    0.4483   -0.0194
C   -6.2323   -0.4311    0.0050
C   -7.4790    0.4558   -0.0110
C   -8.7308   -0.4237    0.0133
C   -9.9774    0.4632   -0.0026
C  -11.2292   -0.4162    0.0217
C  -12.4759    0.4706    0.0058
C  -13.7277   -0.4088    0.0301
C  -14.9743    0.4780    0.0142
C  -16.2261   -0.4014    0.0385
C  -17.4728    0.4854    0.0225
C  -18.7246   -0.3940    0.0469
C  -19.9713    0.4928    0.0309
C  -21.2230   -0.3866    0.0553
O   20.8270    0.2369    0.7539
H   20.1180    1.0896   -0.8890
H   18.7474   -1.1547   -0.9543
H   18.7535   -1.1140    0.8251
H   17.5104    1.0311    0.7804
H   17.5043    0.9904   -0.9991
H   16.2489   -1.1473   -0.9460
H   16.2550   -1.1066    0.8335
H   15.0120    1.0385    0.7888
H   15.0059    0.9979   -0.9907
H   13.7505   -1.1398   -0.9376
H   13.7566   -1.0992    0.8419
H   12.5135    1.0459    0.7972
H   12.5074    1.0053   -0.9823
H   11.2520   -1.1324   -0.9292
H   11.2581   -1.0918    0.8503
H   10.0151    1.0533    0.8056
H   10.0090    1.0127   -0.9739
H    8.7535   -1.1250   -0.9208
H    8.7596   -1.0844    0.8587
H    7.5166    1.0607    0.8140
H    7.5105    1.0201   -0.9655
H    6.2551   -1.1176   -0.9124
H    6.2612   -1.0770    0.8671
H    5.0182    1.0681    0.8224
H    5.0121    1.0275   -0.9571
H    3.7566   -1.1102   -0.9040
H    3.7627   -1.0696    0.8755
H    2.5197    1.0756    0.8308
H    2.5136    1.0349   -0.9487
H    1.2582   -1.1028   -0.8956
H    1.2643   -1.0621    0.8839
H    0.0212    1.0830    0.8392
H    0.0151    1.0423   -0.9403
H   -1.2403   -1.0954   -0.8872
H   -1.2342   -1.0547    0.8923
H   -2.4772    1.0904    0.8476
H   -2.4833    1.0498   -0.9319
H   -3.7387   -1.0879   -0.8788
H   -3.7326   -1.0473    0.9007
H   -4.9757    1.0978    0.8560
H   -4.9818    1.0572   -0.9235
H   -6.2372   -1.0805   -0.8704
H   -6.2311   -1.0399    0.9091
H   -7.4741    1.1052    0.8644
H   -7.4802    1.0646   -0.9151
H   -8.7356   -1.0731   -0.8620
H   -8.7295   -1.0325    0.9175
H   -9.9726    1.1126    0.8727
H   -9.9787    1.0720   -0.9067
H  -11.2341   -1.0657   -0.8536
H  -11.2280   -1.0251    0.9259
H  -12.4710    1.1200    0.8811
H  -12.4771    1.0794   -0.8984
H  -13.7325   -1.0583   -0.8452
H  -13.7264   -1.0177    0.9342
H  -14.9695    1.1275    0.8895
H  -14.9756    1.0868   -0.8900
H  -16.2310   -1.0509   -0.8369
H  -16.2249   -1.0102    0.9426
H  -17.4679    1.1349    0.8979
H  -17.4740    1.0942   -0.8816
H  -18.7294   -1.0435   -0.8285
H  -18.7234   -1.0028    0.9510
H  -19.9664    1.1423    0.9063
H  -19.9725    1.1017   -0.8732
H  -21.2279   -1.0360   -0.8201
H  -21.2218   -0.9954    0.9594
H  -22.1112    0.2452    0.0439
