100
C33H66O
C   19.3602    0.3843   -0.1076
C   18.1289   -0.4841   -0.0796
C   16.8805    0.4002   -0.0991
C   15.6304   -0.4814   -0.0707
C   14.3821    0.4029   -0.0901
C   13.1320   -0.4788   -0.0617
C   11.8836    0.4056   -0.0811
C   10.6335   -0.4761   -0.0527
C    9.3851    0.4083   -0.0721
C    8.1351   -0.4734   -0.0437
C    6.8867    0.4110   -0.0631
C    5.6366   -0.4707   -0.0347
C    4.3882    0.4137   -0.0541
C    3.1381   -0.4680   -0.0257
C    1.8898    0.4163   -0.0451
C    0.6397   -0.4653   -0.0167
C   -0.6087    0.4190   -0.0362
C   -1.8588   -0.4627   -0.0077
C   -3.1072    0.4217   -0.0272
C   -4.3573   -0.4600    0.0012
C   -5.6056    0.4244   -0.0182
C   -6.8557   -0.4573    0.0102
C   -8.1041    0.4271   -0.0092
C   -9.3542   -0.4546    0.0192
C  -10.6025    0.4298   -0.0002
C  -11.8526   -0.4519    0.0282
C  -13.1010    0.4324    0.0088
C  -14.3511   -0.4492    0.0372
C  -15.5995    0.4351    0.0178
C  -16.8496   -0.4466    0.0462
C  -18.0979    0.4378    0.0268
C  -19.3480   -0.4439    0.0552
C  -20.5964    0.4405    0.0357
O   20.2025    0.2655    0.7495
H   19.4914    1.1098   -0.8968
H   18.1251   -1.1373   -0.9522
H   18.1315   -1.0891    0.8271
H   16.8844    1.0534    0.7735
H   16.8779    1.0052   -1.0058
H   15.6266   -1.1346   -0.9433
H   15.6331   -1.0864    0.8360
H   14.3859    1.0561    0.7825
H   14.3795    1.0079   -0.9968
H   13.1281   -1.1319   -0.9343
H   13.1346   -1.0837    0.8450
H   11.8875    1.0588    0.7915
H   11.8810    1.0106   -0.9878
H   10.6297   -1.1293   -0.9253
H   10.6361   -1.0811    0.8540
H    9.3890    1.0615    0.8005
H    9.3825    1.0133   -0.9788
H    8.1312   -1.1266   -0.9163
H    8.1377   -1.0784    0.8630
H    6.8905    1.0642    0.8095
H    6.8841    1.0159   -0.9698
H    5.6328   -1.1239   -0.9073
H    5.6392   -1.0757    0.8720
H    4.3921    1.0668    0.8185
H    4.3856    1.0186   -0.9608
H    3.1343   -1.1212   -0.8983
H    3.1407   -1.0730    0.8810
H    1.8936    1.0695    0.8275
H    1.8872    1.0213   -0.9518
H    0.6358   -1.1185   -0.8893
H    0.6423   -1.0703    0.8900
H   -0.6049    1.0722    0.8364
H   -0.6113    1.0240   -0.9429
H   -1.8626   -1.1158   -0.8803
H   -1.8562   -1.0676    0.8990
H   -3.1033    1.0749    0.8454
H   -3.1098    1.0267   -0.9339
H   -4.3611   -1.1132   -0.8714
H   -4.3546   -1.0649    0.9079
H   -5.6018    1.0776    0.8544
H   -5.6082    1.0294   -0.9249
H   -6.8596   -1.1105   -0.8624
H   -6.8531   -1.0623    0.9169
H   -8.1002    1.0803    0.8634
H   -8.1067    1.0320   -0.9159
H   -9.3580   -1.1078   -0.8534
H   -9.3516   -1.0596    0.9259
H  -10.5987    1.0829    0.8724
H  -10.6052    1.0347   -0.9069
H  -11.8565   -1.1051   -0.8444
H  -11.8500   -1.0569    0.9349
H  -13.0972    1.0856    0.8814
H  -13.1036    1.0374   -0.8979
H  -14.3549   -1.1024   -0.8354
H  -14.3485   -1.0542    0.9439
H  -15.5956    1.0883    0.8904
H  -15.6021    1.0401   -0.8889
H  -16.8534   -1.0997   -0.8264
H  -16.8470   -1.0515    0.9529
H  -18.0941    1.0910    0.8994
H  -18.1005    1.0428   -0.8799
H  -19.3519   -1.0971   -0.8174
H  -19.3454   -1.0488    0.9619
H  -20.5926    1.0937    0.9083
H  -20.5990    1.0455   -0.8710
H  -21.4870   -0.1876    0.0560
