130
C43H86O
C   25.6033    0.3941   -0.0854
C   24.3723   -0.4750   -0.0642
C   23.1236    0.4089   -0.0803
C   21.8738   -0.4734   -0.0587
C   20.6251    0.4105   -0.0748
C   19.3753   -0.4718   -0.0533
C   18.1266    0.4121   -0.0694
C   16.8769   -0.4702   -0.0478
C   15.6282    0.4137   -0.0639
C   14.3784   -0.4686   -0.0424
C   13.1297    0.4154   -0.0585
C   11.8799   -0.4670   -0.0370
C   10.6312    0.4170   -0.0531
C    9.3814   -0.4654   -0.0315
C    8.1327    0.4186   -0.0476
C    6.8830   -0.4638   -0.0261
C    5.6343    0.4202   -0.0422
C    4.3845   -0.4622   -0.0207
C    3.1358    0.4218   -0.0367
C    1.8860   -0.4606   -0.0152
C    0.6373    0.4234   -0.0313
C   -0.6124   -0.4590   -0.0098
C   -1.8612    0.4250   -0.0259
C   -3.1109   -0.4574   -0.0043
C   -4.3596    0.4266   -0.0204
C   -5.6094   -0.4557    0.0011
C   -6.8581    0.4282   -0.0150
C   -8.1079   -0.4541    0.0065
C   -9.3566    0.4298   -0.0096
C  -10.6063   -0.4525    0.0120
C  -11.8550    0.4314   -0.0041
C  -13.1048   -0.4509    0.0174
C  -14.3535    0.4330    0.0013
C  -15.6033   -0.4493    0.0229
C  -16.8520    0.4346    0.0068
C  -18.1018   -0.4477    0.0283
C  -19.3505    0.4362    0.0122
C  -20.6002   -0.4461    0.0337
C  -21.8489    0.4378    0.0176
C  -23.0987   -0.4445    0.0392
C  -24.3474    0.4394    0.0231
C  -25.5972   -0.4429    0.0446
C  -26.8459    0.4410    0.0285
O   26.4444    0.2706    0.7723
H   25.7353    1.1242   -0.8701
H   24.3700   -1.1231   -0.9405
H   24.3739   -1.0852    0.8390
H   23.1259    1.0571    0.7961
H   23.1220    1.0191   -0.9834
H   21.8715   -1.1215   -0.9351
H   21.8754   -1.0836    0.8445
H   20.6274    1.0587    0.8016
H   20.6235    1.0207   -0.9780
H   19.3730   -1.1199   -0.9297
H   19.3769   -1.0820    0.8499
H   18.1290    1.0603    0.8070
H   18.1251    1.0224   -0.9726
H   16.8745   -1.1183   -0.9242
H   16.8784   -1.0804    0.8553
H   15.6305    1.0619    0.8124
H   15.6266    1.0240   -0.9671
H   14.3761   -1.1167   -0.9188
H   14.3800   -1.0788    0.8608
H   13.1320    1.0635    0.8179
H   13.1281    1.0256   -0.9617
H   11.8776   -1.1151   -0.9133
H   11.8815   -1.0772    0.8662
H   10.6335    1.0651    0.8233
H   10.6296    1.0272   -0.9562
H    9.3791   -1.1135   -0.9079
H    9.3830   -1.0756    0.8717
H    8.1351    1.0667    0.8287
H    8.1312    1.0288   -0.9508
H    6.8807   -1.1119   -0.9025
H    6.8845   -1.0740    0.8771
H    5.6366    1.0683    0.8342
H    5.6327    1.0304   -0.9454
H    4.3822   -1.1103   -0.8970
H    4.3861   -1.0724    0.8825
H    3.1381    1.0699    0.8396
H    3.1342    1.0320   -0.9399
H    1.8837   -1.1087   -0.8916
H    1.8876   -1.0708    0.8880
H    0.6396    1.0715    0.8451
H    0.6357    1.0336   -0.9345
H   -0.6148   -1.1071   -0.8861
H   -0.6109   -1.0692    0.8934
H   -1.8588    1.0731    0.8505
H   -1.8627    1.0352   -0.9291
H   -3.1132   -1.1055   -0.8807
H   -3.1093   -1.0676    0.8988
H   -4.3573    1.0747    0.8559
H   -4.3612    1.0368   -0.9236
H   -5.6117   -1.1039   -0.8753
H   -5.6078   -1.0660    0.9043
H   -6.8558    1.0763    0.8614
H   -6.8597    1.0384   -0.9182
H   -8.1102   -1.1023   -0.8698
H   -8.1063   -1.0644    0.9097
H   -9.3542    1.0779    0.8668
H   -9.3581    1.0400   -0.9127
H  -10.6087   -1.1007   -0.8644
H  -10.6048   -1.0627    0.9152
H  -11.8527    1.0795    0.8723
H  -11.8566    1.0416   -0.9073
H  -13.1071   -1.0991   -0.8590
H  -13.1032   -1.0611    0.9206
H  -14.3512    1.0811    0.8777
H  -14.3551    1.0432   -0.9019
H  -15.6056   -1.0974   -0.8535
H  -15.6017   -1.0595    0.9260
H  -16.8497    1.0827    0.8831
H  -16.8536    1.0448   -0.8964
H  -18.1041   -1.0958   -0.8481
H  -18.1002   -1.0579    0.9315
H  -19.3481    1.0844    0.8886
H  -19.3520    1.0464   -0.8910
H  -20.6026   -1.0942   -0.8426
H  -20.5987   -1.0563    0.9369
H  -21.8466    1.0860    0.8940
H  -21.8505    1.0480   -0.8855
H  -23.1010   -1.0926   -0.8372
H  -23.0971   -1.0547    0.9424
H  -24.3451    1.0876    0.8995
H  -24.3490    1.0497   -0.8801
H  -25.5995   -1.0910   -0.8318
H  -25.5956   -1.0531    0.9478
H  -27.7362   -0.1875    0.0439
H  -26.8436    1.0892    0.9049
H  -26.8475    1.0513   -0.8747
