160
C53H106O
C   31.8475    0.4003   -0.0707
C   30.6167   -0.4691   -0.0537
C   29.3678    0.4146   -0.0673
C   28.1182   -0.4681   -0.0500
C   26.8693    0.4157   -0.0637
C   25.6197   -0.4670   -0.0464
C   24.3708    0.4168   -0.0601
C   23.1212   -0.4659   -0.0427
C   21.8723    0.4178   -0.0564
C   20.6228   -0.4649   -0.0391
C   19.3739    0.4189   -0.0528
C   18.1243   -0.4638   -0.0355
C   16.8754    0.4200   -0.0491
C   15.6258   -0.4627   -0.0318
C   14.3769    0.4210   -0.0455
C   13.1273   -0.4616   -0.0282
C   11.8784    0.4221   -0.0418
C   10.6288   -0.4606   -0.0245
C    9.3800    0.4232   -0.0382
C    8.1304   -0.4595   -0.0209
C    6.8815    0.4242   -0.0346
C    5.6319   -0.4584   -0.0172
C    4.3830    0.4253   -0.0309
C    3.1334   -0.4574   -0.0136
C    1.8845    0.4264   -0.0273
C    0.6349   -0.4563   -0.0100
C   -0.6139    0.4274   -0.0236
C   -1.8635   -0.4552   -0.0063
C   -3.1124    0.4285   -0.0200
C   -4.3620   -0.4542   -0.0027
C   -5.6109    0.4296   -0.0163
C   -6.8605   -0.4531    0.0010
C   -8.1094    0.4306   -0.0127
C   -9.3590   -0.4520    0.0046
C  -10.6078    0.4317   -0.0091
C  -11.8574   -0.4510    0.0083
C  -13.1063    0.4328   -0.0054
C  -14.3559   -0.4499    0.0119
C  -15.6048    0.4338   -0.0018
C  -16.8544   -0.4488    0.0155
C  -18.1033    0.4349    0.0019
C  -19.3529   -0.4478    0.0192
C  -20.6018    0.4360    0.0055
C  -21.8513   -0.4467    0.0228
C  -23.1002    0.4370    0.0091
C  -24.3498   -0.4456    0.0265
C  -25.5987    0.4381    0.0128
C  -26.8483   -0.4446    0.0301
C  -28.0972    0.4392    0.0164
C  -29.3468   -0.4435    0.0338
C  -30.5957    0.4402    0.0201
C  -31.8453   -0.4424    0.0374
C  -33.0941    0.4413    0.0237
O   32.6880    0.2738    0.7871
H   31.9799    1.1334   -0.8526
H   30.6151   -1.1140   -0.9325
H   30.6177   -1.0827    0.8472
H   29.3693    1.0595    0.8115
H   29.3667    1.0282   -0.9682
H   28.1166   -1.1129   -0.9288
H   28.1192   -1.0817    0.8509
H   26.8709    1.0605    0.8151
H   26.8682    1.0293   -0.9646
H   25.6182   -1.1118   -0.9252
H   25.6208   -1.0806    0.8545
H   24.3724    1.0616    0.8187
H   24.3698    1.0304   -0.9609
H   23.1197   -1.1107   -0.9215
H   23.1223   -1.0795    0.8581
H   21.8739    1.0627    0.8224
H   21.8713    1.0314   -0.9573
H   20.6212   -1.1097   -0.9179
H   20.6238   -1.0785    0.8618
H   19.3754    1.0637    0.8260
H   19.3728    1.0325   -0.9537
H   18.1227   -1.1086   -0.9143
H   18.1253   -1.0774    0.8654
H   16.8770    1.0648    0.8297
H   16.8743    1.0336   -0.9500
H   15.6242   -1.1075   -0.9106
H   15.6269   -1.0763    0.8691
H   14.3785    1.0659    0.8333
H   14.3759    1.0346   -0.9464
H   13.1258   -1.1065   -0.9070
H   13.1284   -1.0752    0.8727
H   11.8800    1.0669    0.8370
H   11.8774    1.0357   -0.9427
H   10.6273   -1.1054   -0.9033
H   10.6299   -1.0742    0.8764
H    9.3815    1.0680    0.8406
H    9.3789    1.0368   -0.9391
H    8.1288   -1.1043   -0.8997
H    8.1314   -1.0731    0.8800
H    6.8830    1.0691    0.8442
H    6.8804    1.0378   -0.9354
H    5.6303   -1.1033   -0.8960
H    5.6329   -1.0720    0.8836
H    4.3846    1.0701    0.8479
H    4.3820    1.0389   -0.9318
H    3.1319   -1.1022   -0.8924
H    3.1345   -1.0710    0.8873
H    1.8861    1.0712    0.8515
H    1.8835    1.0400   -0.9282
H    0.6334   -1.1011   -0.8888
H    0.6360   -1.0699    0.8909
H   -0.6124    1.0723    0.8552
H   -0.6150    1.0410   -0.9245
H   -1.8651   -1.1001   -0.8851
H   -1.8625   -1.0688    0.8946
H   -3.1109    1.0733    0.8588
H   -3.1135    1.0421   -0.9209
H   -4.3636   -1.0990   -0.8815
H   -4.3610   -1.0678    0.8982
H   -5.6093    1.0744    0.8625
H   -5.6119    1.0432   -0.9172
H   -6.8620   -1.0979   -0.8778
H   -6.8594   -1.0667    0.9019
H   -8.1078    1.0755    0.8661
H   -8.1104    1.0442   -0.9136
H   -9.3605   -1.0969   -0.8742
H   -9.3579   -1.0656    0.9055
H  -10.6063    1.0765    0.8697
H  -10.6089    1.0453   -0.9100
H  -11.8590   -1.0958   -0.8705
H  -11.8564   -1.0646    0.9091
H  -13.1048    1.0776    0.8734
H  -13.1074    1.0464   -0.9063
H  -14.3575   -1.0947   -0.8669
H  -14.3549   -1.0635    0.9128
H  -15.6032    1.0787    0.8770
H  -15.6059    1.0474   -0.9027
H  -16.8559   -1.0937   -0.8633
H  -16.8533   -1.0624    0.9164
H  -18.1017    1.0797    0.8807
H  -18.1043    1.0485   -0.8990
H  -19.3544   -1.0926   -0.8596
H  -19.3518   -1.0614    0.9201
H  -20.6002    1.0808    0.8843
H  -20.6028    1.0496   -0.8954
H  -21.8529   -1.0915   -0.8560
H  -21.8503   -1.0603    0.9237
H  -23.0987    1.0819    0.8879
H  -23.1013    1.0506   -0.8917
H  -24.3514   -1.0905   -0.8523
H  -24.3488   -1.0592    0.9274
H  -25.5972    1.0829    0.8916
H  -25.5998    1.0517   -0.8881
H  -26.8499   -1.0894   -0.8487
H  -26.8472   -1.0582    0.9310
H  -28.0956    1.0840    0.8952
H  -28.0982    1.0528   -0.8845
H  -29.3483   -1.0883   -0.8450
H  -29.3457   -1.0571    0.9346
H  -30.5941    1.0851    0.8989
H  -30.5967    1.0538   -0.8808
H  -31.8468   -1.0873   -0.8414
H  -31.8442   -1.0560    0.9383
H  -33.9844   -0.1875    0.0361
H  -33.0926    1.0861    0.9025
H  -33.0952    1.0549   -0.8772
