280
C93H186O
C   56.8285    0.4121   -0.0419
C   55.5979   -0.4577   -0.0324
C   54.3488    0.4257   -0.0408
C   53.0995   -0.4574   -0.0312
C   51.8503    0.4261   -0.0396
C   50.6010   -0.4570   -0.0299
C   49.3519    0.4264   -0.0384
C   48.1025   -0.4567   -0.0287
C   46.8534    0.4268   -0.0372
C   45.6040   -0.4563   -0.0275
C   44.3549    0.4272   -0.0359
C   43.1055   -0.4560   -0.0263
C   41.8564    0.4275   -0.0347
C   40.6071   -0.4556   -0.0250
C   39.3580    0.4279   -0.0335
C   38.1086   -0.4553   -0.0238
C   36.8595    0.4282   -0.0323
C   35.6101   -0.4549   -0.0226
C   34.3610    0.4286   -0.0311
C   33.1116   -0.4546   -0.0214
C   31.8625    0.4289   -0.0298
C   30.6132   -0.4542   -0.0202
C   29.3640    0.4293   -0.0286
C   28.1147   -0.4539   -0.0189
C   26.8656    0.4296   -0.0274
C   25.6162   -0.4535   -0.0177
C   24.3671    0.4300   -0.0262
C   23.1177   -0.4531   -0.0165
C   21.8686    0.4303   -0.0249
C   20.6192   -0.4528   -0.0153
C   19.3701    0.4307   -0.0237
C   18.1208   -0.4524   -0.0140
C   16.8716    0.4310   -0.0225
C   15.6223   -0.4521   -0.0128
C   14.3732    0.4314   -0.0213
C   13.1238   -0.4517   -0.0116
C   11.8747    0.4317   -0.0201
C   10.6253   -0.4514   -0.0104
C    9.3762    0.4321   -0.0188
C    8.1268   -0.4510   -0.0091
C    6.8777    0.4324   -0.0176
C    5.6284   -0.4507   -0.0079
C    4.3792    0.4328   -0.0164
C    3.1299   -0.4503   -0.0067
C    1.8808    0.4332   -0.0152
C    0.6314   -0.4500   -0.0055
C   -0.6177    0.4335   -0.0139
C   -1.8671   -0.4496   -0.0043
C   -3.1162    0.4339   -0.0127
C   -4.3656   -0.4493   -0.0030
C   -5.6147    0.4342   -0.0115
C   -6.8640   -0.4489   -0.0018
C   -8.1132    0.4346   -0.0103
C   -9.3625   -0.4486   -0.0006
C  -10.6116    0.4349   -0.0091
C  -11.8610   -0.4482    0.0006
C  -13.1101    0.4353   -0.0078
C  -14.3595   -0.4479    0.0019
C  -15.6086    0.4356   -0.0066
C  -16.8579   -0.4475    0.0031
C  -18.1071    0.4360   -0.0054
C  -19.3564   -0.4471    0.0043
C  -20.6055    0.4363   -0.0042
C  -21.8549   -0.4468    0.0055
C  -23.1040    0.4367   -0.0029
C  -24.3534   -0.4464    0.0067
C  -25.6025    0.4370   -0.0017
C  -26.8519   -0.4461    0.0080
C  -28.1010    0.4374   -0.0005
C  -29.3503   -0.4457    0.0092
C  -30.5995    0.4377    0.0007
C  -31.8488   -0.4454    0.0104
C  -33.0979    0.4381    0.0019
C  -34.3473   -0.4450    0.0116
C  -35.5964    0.4384    0.0032
C  -36.8458   -0.4447    0.0129
C  -38.0949    0.4388    0.0044
C  -39.3443   -0.4443    0.0141
C  -40.5934    0.4392    0.0056
C  -41.8427   -0.4440    0.0153
C  -43.0919    0.4395    0.0068
C  -44.3412   -0.4436    0.0165
C  -45.5903    0.4399    0.0081
C  -46.8397   -0.4433    0.0177
C  -48.0888    0.4402    0.0093
C  -49.3382   -0.4429    0.0190
C  -50.5873    0.4406    0.0105
C  -51.8367   -0.4426    0.0202
C  -53.0858    0.4409    0.0117
C  -54.3351   -0.4422    0.0214
C  -55.5843    0.4413    0.0129
C  -56.8336   -0.4419    0.0226
C  -58.0827    0.4416    0.0142
O   57.6683    0.2796    0.8158
H   56.9616    1.1509   -0.8183
H   55.5974   -1.0962   -0.9158
H   55.5983   -1.0779    0.8640
H   54.3493    1.0642    0.8426
H   54.3485    1.0459   -0.9372
H   53.0989   -1.0958   -0.9146
H   53.0998   -1.0775    0.8652
H   51.8509    1.0645    0.8439
H   51.8500    1.0462   -0.9360
H   50.6005   -1.0954   -0.9134
H   50.6013   -1.0772    0.8665
H   49.3524    1.0649    0.8451
H   49.3515    1.0466   -0.9348
H   48.1020   -1.0951   -0.9122
H   48.1029   -1.0768    0.8677
H   46.8539    1.0652    0.8463
H   46.8530    1.0469   -0.9336
H   45.6035   -1.0947   -0.9110
H   45.6044   -1.0765    0.8689
H   44.3554    1.0656    0.8475
H   44.3546    1.0473   -0.9323
H   43.1050   -1.0944   -0.9097
H   43.1059   -1.0761    0.8701
H   41.8570    1.0659    0.8487
H   41.8561    1.0476   -0.9311
H   40.6065   -1.0940   -0.9085
H   40.6074   -1.0758    0.8714
H   39.3585    1.0663    0.8500
H   39.3576    1.0480   -0.9299
H   38.1081   -1.0937   -0.9073
H   38.1089   -1.0754    0.8726
H   36.8600    1.0666    0.8512
H   36.8591    1.0483   -0.9287
H   35.6096   -1.0933   -0.9061
H   35.6105   -1.0750    0.8738
H   34.3615    1.0670    0.8524
H   34.3606    1.0487   -0.9275
H   33.1111   -1.0930   -0.9048
H   33.1120   -1.0747    0.8750
H   31.8630    1.0673    0.8536
H   31.8622    1.0491   -0.9262
H   30.6126   -1.0926   -0.9036
H   30.6135   -1.0743    0.8762
H   29.3646    1.0677    0.8549
H   29.3637    1.0494   -0.9250
H   28.1142   -1.0923   -0.9024
H   28.1150   -1.0740    0.8775
H   26.8661    1.0680    0.8561
H   26.8652    1.0498   -0.9238
H   25.6157   -1.0919   -0.9012
H   25.6165   -1.0736    0.8787
H   24.3676    1.0684    0.8573
H   24.3667    1.0501   -0.9226
H   23.1172   -1.0916   -0.9000
H   23.1181   -1.0733    0.8799
H   21.8691    1.0688    0.8585
H   21.8682    1.0505   -0.9213
H   20.6187   -1.0912   -0.8987
H   20.6196   -1.0729    0.8811
H   19.3706    1.0691    0.8597
H   19.3698    1.0508   -0.9201
H   18.1202   -1.0909   -0.8975
H   18.1211   -1.0726    0.8824
H   16.8722    1.0695    0.8610
H   16.8713    1.0512   -0.9189
H   15.6218   -1.0905   -0.8963
H   15.6226   -1.0722    0.8836
H   14.3737    1.0698    0.8622
H   14.3728    1.0515   -0.9177
H   13.1233   -1.0902   -0.8951
H   13.1242   -1.0719    0.8848
H   11.8752    1.0702    0.8634
H   11.8743    1.0519   -0.9165
H   10.6248   -1.0898   -0.8938
H   10.6257   -1.0715    0.8860
H    9.3767    1.0705    0.8646
H    9.3759    1.0522   -0.9152
H    8.1263   -1.0895   -0.8926
H    8.1272   -1.0712    0.8873
H    6.8782    1.0709    0.8659
H    6.8774    1.0526   -0.9140
H    5.6278   -1.0891   -0.8914
H    5.6287   -1.0708    0.8885
H    4.3798    1.0712    0.8671
H    4.3789    1.0529   -0.9128
H    3.1294   -1.0887   -0.8902
H    3.1302   -1.0705    0.8897
H    1.8813    1.0716    0.8683
H    1.8804    1.0533   -0.9116
H    0.6309   -1.0884   -0.8889
H    0.6318   -1.0701    0.8909
H   -0.6172    1.0719    0.8695
H   -0.6181    1.0536   -0.9103
H   -1.8676   -1.0880   -0.8877
H   -1.8667   -1.0698    0.8921
H   -3.1157    1.0723    0.8707
H   -3.1165    1.0540   -0.9091
H   -4.3661   -1.0877   -0.8865
H   -4.3652   -1.0694    0.8934
H   -5.6142    1.0726    0.8720
H   -5.6150    1.0543   -0.9079
H   -6.8646   -1.0873   -0.8853
H   -6.8637   -1.0690    0.8946
H   -8.1126    1.0730    0.8732
H   -8.1135    1.0547   -0.9067
H   -9.3630   -1.0870   -0.8841
H   -9.3622   -1.0687    0.8958
H  -10.6111    1.0733    0.8744
H  -10.6120    1.0551   -0.9055
H  -11.8615   -1.0866   -0.8828
H  -11.8606   -1.0683    0.8970
H  -13.1096    1.0737    0.8756
H  -13.1105    1.0554   -0.9042
H  -14.3600   -1.0863   -0.8816
H  -14.3591   -1.0680    0.8983
H  -15.6081    1.0740    0.8769
H  -15.6089    1.0558   -0.9030
H  -16.8585   -1.0859   -0.8804
H  -16.8576   -1.0676    0.8995
H  -18.1065    1.0744    0.8781
H  -18.1074    1.0561   -0.9018
H  -19.3570   -1.0856   -0.8792
H  -19.3561   -1.0673    0.9007
H  -20.6050    1.0748    0.8793
H  -20.6059    1.0565   -0.9006
H  -21.8554   -1.0852   -0.8779
H  -21.8546   -1.0669    0.9019
H  -23.1035    1.0751    0.8805
H  -23.1044    1.0568   -0.8993
H  -24.3539   -1.0849   -0.8767
H  -24.3530   -1.0666    0.9031
H  -25.6020    1.0755    0.8817
H  -25.6029    1.0572   -0.8981
H  -26.8524   -1.0845   -0.8755
H  -26.8515   -1.0662    0.9044
H  -28.1005    1.0758    0.8830
H  -28.1013    1.0575   -0.8969
H  -29.3509   -1.0842   -0.8743
H  -29.3500   -1.0659    0.9056
H  -30.5989    1.0762    0.8842
H  -30.5998    1.0579   -0.8957
H  -31.8493   -1.0838   -0.8731
H  -31.8485   -1.0655    0.9068
H  -33.0974    1.0765    0.8854
H  -33.0983    1.0582   -0.8945
H  -34.3478   -1.0835   -0.8718
H  -34.3470   -1.0652    0.9080
H  -35.5959    1.0769    0.8866
H  -35.5968    1.0586   -0.8932
H  -36.8463   -1.0831   -0.8706
H  -36.8454   -1.0648    0.9093
H  -38.0944    1.0772    0.8879
H  -38.0953    1.0589   -0.8920
H  -39.3448   -1.0827   -0.8694
H  -39.3439   -1.0645    0.9105
H  -40.5929    1.0776    0.8891
H  -40.5937    1.0593   -0.8908
H  -41.8433   -1.0824   -0.8682
H  -41.8424   -1.0641    0.9117
H  -43.0913    1.0779    0.8903
H  -43.0922    1.0596   -0.8896
H  -44.3417   -1.0820   -0.8669
H  -44.3409   -1.0637    0.9129
H  -45.5898    1.0783    0.8915
H  -45.5907    1.0600   -0.8883
H  -46.8402   -1.0817   -0.8657
H  -46.8393   -1.0634    0.9141
H  -48.0883    1.0786    0.8927
H  -48.0892    1.0603   -0.8871
H  -49.3387   -1.0813   -0.8645
H  -49.3378   -1.0630    0.9154
H  -50.5868    1.0790    0.8940
H  -50.5876    1.0607   -0.8859
H  -51.8372   -1.0810   -0.8633
H  -51.8363   -1.0627    0.9166
H  -53.0853    1.0793    0.8952
H  -53.0861    1.0610   -0.8847
H  -54.3357   -1.0806   -0.8621
H  -54.3348   -1.0623    0.9178
H  -55.5837    1.0797    0.8964
H  -55.5846    1.0614   -0.8835
H  -56.8341   -1.0803   -0.8608
H  -56.8333   -1.0620    0.9190
H  -58.9728   -0.1875    0.0211
H  -58.0822    1.0800    0.8976
H  -58.0831    1.0618   -0.8822
