340
C113H226O
C   69.3200    0.4149   -0.0348
C   68.0895   -0.4550   -0.0270
C   66.8403    0.4285   -0.0341
C   65.5910   -0.4547   -0.0262
C   64.3419    0.4287   -0.0333
C   63.0925   -0.4545   -0.0253
C   61.8434    0.4289   -0.0324
C   60.5941   -0.4543   -0.0245
C   59.3449    0.4292   -0.0316
C   58.0956   -0.4540   -0.0237
C   56.8464    0.4294   -0.0308
C   55.5971   -0.4538   -0.0228
C   54.3479    0.4297   -0.0299
C   53.0986   -0.4535   -0.0220
C   51.8495    0.4299   -0.0291
C   50.6001   -0.4533   -0.0212
C   49.3510    0.4301   -0.0283
C   48.1017   -0.4531   -0.0203
C   46.8525    0.4304   -0.0274
C   45.6032   -0.4528   -0.0195
C   44.3540    0.4306   -0.0266
C   43.1047   -0.4526   -0.0187
C   41.8555    0.4309   -0.0258
C   40.6062   -0.4523   -0.0178
C   39.3571    0.4311   -0.0249
C   38.1077   -0.4521   -0.0170
C   36.8586    0.4313   -0.0241
C   35.6093   -0.4519   -0.0162
C   34.3601    0.4316   -0.0233
C   33.1108   -0.4516   -0.0153
C   31.8616    0.4318   -0.0224
C   30.6123   -0.4514   -0.0145
C   29.3631    0.4321   -0.0216
C   28.1138   -0.4511   -0.0137
C   26.8647    0.4323   -0.0208
C   25.6153   -0.4509   -0.0128
C   24.3662    0.4325   -0.0199
C   23.1169   -0.4507   -0.0120
C   21.8677    0.4328   -0.0191
C   20.6184   -0.4504   -0.0112
C   19.3692    0.4330   -0.0182
C   18.1199   -0.4502   -0.0103
C   16.8708    0.4333   -0.0174
C   15.6214   -0.4499   -0.0095
C   14.3723    0.4335   -0.0166
C   13.1230   -0.4497   -0.0086
C   11.8738    0.4337   -0.0157
C   10.6245   -0.4495   -0.0078
C    9.3753    0.4340   -0.0149
C    8.1260   -0.4492   -0.0070
C    6.8768    0.4342   -0.0141
C    5.6275   -0.4490   -0.0061
C    4.3784    0.4345   -0.0132
C    3.1290   -0.4487   -0.0053
C    1.8799    0.4347   -0.0124
C    0.6306   -0.4485   -0.0045
C   -0.6186    0.4349   -0.0116
C   -1.8679   -0.4483   -0.0036
C   -3.1171    0.4352   -0.0107
C   -4.3664   -0.4480   -0.0028
C   -5.6156    0.4354   -0.0099
C   -6.8649   -0.4478   -0.0020
C   -8.1140    0.4357   -0.0091
C   -9.3634   -0.4475   -0.0011
C  -10.6125    0.4359   -0.0082
C  -11.8618   -0.4473   -0.0003
C  -13.1110    0.4361   -0.0074
C  -14.3603   -0.4471    0.0005
C  -15.6095    0.4364   -0.0066
C  -16.8588   -0.4468    0.0014
C  -18.1080    0.4366   -0.0057
C  -19.3573   -0.4466    0.0022
C  -20.6064    0.4369   -0.0049
C  -21.8558   -0.4463    0.0030
C  -23.1049    0.4371   -0.0041
C  -24.3542   -0.4461    0.0039
C  -25.6034    0.4373   -0.0032
C  -26.8527   -0.4459    0.0047
C  -28.1019    0.4376   -0.0024
C  -29.3512   -0.4456    0.0055
C  -30.6004    0.4378   -0.0016
C  -31.8497   -0.4454    0.0064
C  -33.0988    0.4381   -0.0007
C  -34.3482   -0.4451    0.0072
C  -35.5973    0.4383    0.0001
C  -36.8466   -0.4449    0.0080
C  -38.0958    0.4385    0.0009
C  -39.3451   -0.4447    0.0089
C  -40.5943    0.4388    0.0018
C  -41.8436   -0.4444    0.0097
C  -43.0928    0.4390    0.0026
C  -44.3421   -0.4442    0.0106
C  -45.5912    0.4393    0.0034
C  -46.8406   -0.4439    0.0114
C  -48.0897    0.4395    0.0043
C  -49.3390   -0.4437    0.0122
C  -50.5882    0.4397    0.0051
C  -51.8375   -0.4435    0.0131
C  -53.0867    0.4400    0.0060
C  -54.3360   -0.4432    0.0139
C  -55.5851    0.4402    0.0068
C  -56.8345   -0.4430    0.0147
C  -58.0836    0.4405    0.0076
C  -59.3330   -0.4427    0.0156
C  -60.5821    0.4407    0.0085
C  -61.8314   -0.4425    0.0164
C  -63.0806    0.4409    0.0093
C  -64.3299   -0.4423    0.0172
C  -65.5791    0.4412    0.0101
C  -66.8284   -0.4420    0.0181
C  -68.0775    0.4414    0.0110
C  -69.3269   -0.4418    0.0189
C  -70.5760    0.4417    0.0118
O   70.1596    0.2810    0.8227
H   69.4531    1.1551   -0.8099
H   68.0891   -1.0918   -0.9116
H   68.0897   -1.0767    0.8683
H   66.8407    1.0653    0.8505
H   66.8401    1.0502   -0.9294
H   65.5907   -1.0916   -0.9108
H   65.5913   -1.0765    0.8691
H   64.3422    1.0656    0.8513
H   64.3416    1.0504   -0.9286
H   63.0922   -1.0914   -0.9099
H   63.0928   -1.0762    0.8700
H   61.8437    1.0658    0.8522
H   61.8431    1.0507   -0.9277
H   60.5937   -1.0911   -0.9091
H   60.5943   -1.0760    0.8708
H   59.3453    1.0660    0.8530
H   59.3447    1.0509   -0.9269
H   58.0952   -1.0909   -0.9083
H   58.0958   -1.0757    0.8716
H   56.8468    1.0663    0.8538
H   56.8462    1.0511   -0.9261
H   55.5967   -1.0906   -0.9074
H   55.5973   -1.0755    0.8725
H   54.3483    1.0665    0.8547
H   54.3477    1.0514   -0.9252
H   53.0983   -1.0904   -0.9066
H   53.0989   -1.0753    0.8733
H   51.8498    1.0668    0.8555
H   51.8492    1.0516   -0.9244
H   50.5998   -1.0902   -0.9058
H   50.6004   -1.0750    0.8741
H   49.3513    1.0670    0.8563
H   49.3507    1.0519   -0.9236
H   48.1013   -1.0899   -0.9049
H   48.1019   -1.0748    0.8750
H   46.8529    1.0672    0.8572
H   46.8523    1.0521   -0.9227
H   45.6028   -1.0897   -0.9041
H   45.6034   -1.0745    0.8758
H   44.3544    1.0675    0.8580
H   44.3538    1.0523   -0.9219
H   43.1043   -1.0894   -0.9033
H   43.1049   -1.0743    0.8766
H   41.8559    1.0677    0.8588
H   41.8553    1.0526   -0.9211
H   40.6059   -1.0892   -0.9024
H   40.6065   -1.0741    0.8775
H   39.3574    1.0680    0.8597
H   39.3568    1.0528   -0.9202
H   38.1074   -1.0890   -0.9016
H   38.1080   -1.0738    0.8783
H   36.8589    1.0682    0.8605
H   36.8583    1.0531   -0.9194
H   35.6089   -1.0887   -0.9008
H   35.6095   -1.0736    0.8791
H   34.3605    1.0684    0.8613
H   34.3599    1.0533   -0.9186
H   33.1104   -1.0885   -0.8999
H   33.1110   -1.0733    0.8800
H   31.8620    1.0687    0.8622
H   31.8614    1.0535   -0.9177
H   30.6119   -1.0882   -0.8991
H   30.6125   -1.0731    0.8808
H   29.3635    1.0689    0.8630
H   29.3629    1.0538   -0.9169
H   28.1135   -1.0880   -0.8982
H   28.1141   -1.0728    0.8816
H   26.8650    1.0692    0.8638
H   26.8644    1.0540   -0.9161
H   25.6150   -1.0878   -0.8974
H   25.6156   -1.0726    0.8825
H   24.3665    1.0694    0.8647
H   24.3659    1.0543   -0.9152
H   23.1165   -1.0875   -0.8966
H   23.1171   -1.0724    0.8833
H   21.8681    1.0696    0.8655
H   21.8675    1.0545   -0.9144
H   20.6180   -1.0873   -0.8957
H   20.6186   -1.0721    0.8842
H   19.3696    1.0699    0.8663
H   19.3690    1.0547   -0.9136
H   18.1196   -1.0870   -0.8949
H   18.1201   -1.0719    0.8850
H   16.8711    1.0701    0.8672
H   16.8705    1.0550   -0.9127
H   15.6211   -1.0868   -0.8941
H   15.6217   -1.0716    0.8858
H   14.3726    1.0704    0.8680
H   14.3720    1.0552   -0.9119
H   13.1226   -1.0866   -0.8932
H   13.1232   -1.0714    0.8867
H   11.8742    1.0706    0.8688
H   11.8736    1.0555   -0.9110
H   10.6241   -1.0863   -0.8924
H   10.6247   -1.0712    0.8875
H    9.3757    1.0708    0.8697
H    9.3751    1.0557   -0.9102
H    8.1256   -1.0861   -0.8916
H    8.1262   -1.0709    0.8883
H    6.8772    1.0711    0.8705
H    6.8766    1.0559   -0.9094
H    5.6272   -1.0858   -0.8907
H    5.6278   -1.0707    0.8892
H    4.3787    1.0713    0.8714
H    4.3781    1.0562   -0.9085
H    3.1287   -1.0856   -0.8899
H    3.1293   -1.0704    0.8900
H    1.8802    1.0716    0.8722
H    1.8796    1.0564   -0.9077
H    0.6302   -1.0854   -0.8891
H    0.6308   -1.0702    0.8908
H   -0.6182    1.0718    0.8730
H   -0.6188    1.0567   -0.9069
H   -1.8683   -1.0851   -0.8882
H   -1.8677   -1.0700    0.8917
H   -3.1167    1.0720    0.8739
H   -3.1173    1.0569   -0.9060
H   -4.3668   -1.0849   -0.8874
H   -4.3662   -1.0697    0.8925
H   -5.6152    1.0723    0.8747
H   -5.6158    1.0571   -0.9052
H   -6.8652   -1.0846   -0.8866
H   -6.8646   -1.0695    0.8933
H   -8.1137    1.0725    0.8755
H   -8.1143    1.0574   -0.9044
H   -9.3637   -1.0844   -0.8857
H   -9.3631   -1.0692    0.8942
H  -10.6122    1.0728    0.8764
H  -10.6128    1.0576   -0.9035
H  -11.8622   -1.0842   -0.8849
H  -11.8616   -1.0690    0.8950
H  -13.1106    1.0730    0.8772
H  -13.1112    1.0579   -0.9027
H  -14.3607   -1.0839   -0.8841
H  -14.3601   -1.0688    0.8958
H  -15.6091    1.0732    0.8780
H  -15.6097    1.0581   -0.9019
H  -16.8592   -1.0837   -0.8832
H  -16.8586   -1.0685    0.8967
H  -18.1076    1.0735    0.8789
H  -18.1082    1.0583   -0.9010
H  -19.3576   -1.0834   -0.8824
H  -19.3570   -1.0683    0.8975
H  -20.6061    1.0737    0.8797
H  -20.6067    1.0586   -0.9002
H  -21.8561   -1.0832   -0.8816
H  -21.8555   -1.0680    0.8983
H  -23.1046    1.0740    0.8805
H  -23.1052    1.0588   -0.8994
H  -24.3546   -1.0830   -0.8807
H  -24.3540   -1.0678    0.8992
H  -25.6030    1.0742    0.8814
H  -25.6036    1.0591   -0.8985
H  -26.8531   -1.0827   -0.8799
H  -26.8525   -1.0676    0.9000
H  -28.1015    1.0744    0.8822
H  -28.1021    1.0593   -0.8977
H  -29.3516   -1.0825   -0.8791
H  -29.3510   -1.0673    0.9008
H  -30.6000    1.0747    0.8830
H  -30.6006    1.0595   -0.8969
H  -31.8500   -1.0822   -0.8782
H  -31.8494   -1.0671    0.9017
H  -33.0985    1.0749    0.8839
H  -33.0991    1.0598   -0.8960
H  -34.3485   -1.0820   -0.8774
H  -34.3479   -1.0668    0.9025
H  -35.5970    1.0752    0.8847
H  -35.5976    1.0600   -0.8952
H  -36.8470   -1.0818   -0.8765
H  -36.8464   -1.0666    0.9034
H  -38.0954    1.0754    0.8855
H  -38.0960    1.0603   -0.8944
H  -39.3455   -1.0815   -0.8757
H  -39.3449   -1.0664    0.9042
H  -40.5939    1.0756    0.8864
H  -40.5945    1.0605   -0.8935
H  -41.8440   -1.0813   -0.8749
H  -41.8434   -1.0661    0.9050
H  -43.0924    1.0759    0.8872
H  -43.0930    1.0607   -0.8927
H  -44.3424   -1.0810   -0.8740
H  -44.3418   -1.0659    0.9059
H  -45.5909    1.0761    0.8880
H  -45.5915    1.0610   -0.8919
H  -46.8409   -1.0808   -0.8732
H  -46.8403   -1.0656    0.9067
H  -48.0894    1.0764    0.8889
H  -48.0900    1.0612   -0.8910
H  -49.3394   -1.0806   -0.8724
H  -49.3388   -1.0654    0.9075
H  -50.5878    1.0766    0.8897
H  -50.5884    1.0615   -0.8902
H  -51.8379   -1.0803   -0.8715
H  -51.8373   -1.0652    0.9084
H  -53.0863    1.0768    0.8905
H  -53.0869    1.0617   -0.8894
H  -54.3363   -1.0801   -0.8707
H  -54.3358   -1.0649    0.9092
H  -55.5848    1.0771    0.8914
H  -55.5854    1.0619   -0.8885
H  -56.8348   -1.0798   -0.8699
H  -56.8342   -1.0647    0.9100
H  -58.0833    1.0773    0.8922
H  -58.0839    1.0622   -0.8877
H  -59.3333   -1.0796   -0.8690
H  -59.3327   -1.0644    0.9109
H  -60.5817    1.0776    0.8930
H  -60.5823    1.0624   -0.8868
H  -61.8318   -1.0794   -0.8682
H  -61.8312   -1.0642    0.9117
H  -63.0802    1.0778    0.8939
H  -63.0808    1.0627   -0.8860
H  -64.3303   -1.0791   -0.8674
H  -64.3297   -1.0640    0.9125
H  -65.5787    1.0780    0.8947
H  -65.5793    1.0629   -0.8852
H  -66.8287   -1.0789   -0.8665
H  -66.8281   -1.0637    0.9134
H  -68.0772    1.0783    0.8956
H  -68.0778    1.0631   -0.8843
H  -69.3272   -1.0786   -0.8657
H  -69.3266   -1.0635    0.9142
H  -70.5757    1.0785    0.8964
H  -70.5763    1.0634   -0.8835
H  -71.4661   -0.1875    0.0174
