91
C30H60O
C   17.4886    0.3531   -0.1143
C   16.2550   -0.5120   -0.0874
C   15.0090    0.3758   -0.1041
C   13.7566   -0.5026   -0.0768
C   12.5106    0.3852   -0.0935
C   11.2581   -0.4931   -0.0662
C   10.0121    0.3946   -0.0829
C    8.7597   -0.4837   -0.0556
C    7.5137    0.4041   -0.0723
C    6.2612   -0.4743   -0.0450
C    5.0153    0.4135   -0.0617
C    3.7628   -0.4648   -0.0344
C    2.5168    0.4229   -0.0511
C    1.2644   -0.4554   -0.0237
C    0.0184    0.4324   -0.0405
C   -1.2341   -0.4460   -0.0131
C   -2.4800    0.4418   -0.0299
C   -3.7325   -0.4365   -0.0025
C   -4.9785    0.4512   -0.0193
C   -6.2309   -0.4271    0.0081
C   -7.4769    0.4607   -0.0087
C   -8.7294   -0.4177    0.0187
C   -9.9754    0.4701    0.0020
C  -11.2278   -0.4082    0.0293
C  -12.4738    0.4796    0.0126
C  -13.7263   -0.3988    0.0399
C  -14.9722    0.4890    0.0232
C  -16.2247   -0.3894    0.0505
C  -17.4707    0.4984    0.0338
C  -18.7231   -0.3799    0.0611
O   18.3311    0.2302    0.7420
H   17.6213    1.0800   -0.9020
H   16.2488   -1.1633   -0.9614
H   16.2566   -1.1189    0.8180
H   15.0152    1.0271    0.7698
H   15.0075    0.9827   -1.0095
H   13.7504   -1.1539   -0.9508
H   13.7581   -1.1095    0.8286
H   12.5168    1.0365    0.7805
H   12.5090    0.9921   -0.9989
H   11.2520   -1.1445   -0.9402
H   11.2597   -1.1001    0.8392
H   10.0183    1.0459    0.7911
H   10.0106    1.0015   -0.9883
H    8.7535   -1.1350   -0.9296
H    8.7612   -1.0906    0.8498
H    7.5199    1.0554    0.8017
H    7.5122    1.0110   -0.9777
H    6.2551   -1.1256   -0.9190
H    6.2628   -1.0812    0.8604
H    5.0214    1.0648    0.8123
H    5.0137    1.0204   -0.9671
H    3.7566   -1.1162   -0.9083
H    3.7644   -1.0718    0.8710
H    2.5230    1.0742    0.8229
H    2.5153    1.0299   -0.9565
H    1.2582   -1.1067   -0.8977
H    1.2659   -1.0623    0.8817
H    0.0246    1.0837    0.8335
H    0.0168    1.0393   -0.9459
H   -1.2402   -1.0973   -0.8871
H   -1.2325   -1.0529    0.8923
H   -2.4739    1.0931    0.8441
H   -2.4816    1.0487   -0.9353
H   -3.7387   -1.0878   -0.8765
H   -3.7310   -1.0435    0.9029
H   -4.9723    1.1026    0.8547
H   -4.9800    1.0582   -0.9247
H   -6.2371   -1.0784   -0.8659
H   -6.2294   -1.0340    0.9135
H   -7.4708    1.1120    0.8653
H   -7.4785    1.0676   -0.9141
H   -8.7356   -1.0690   -0.8553
H   -8.7278   -1.0246    0.9241
H   -9.9692    1.1214    0.8759
H   -9.9769    1.0770   -0.9034
H  -11.2340   -1.0595   -0.8447
H  -11.2263   -1.0151    0.9347
H  -12.4676    1.1309    0.8866
H  -12.4754    1.0865   -0.8928
H  -13.7324   -1.0501   -0.8341
H  -13.7247   -1.0057    0.9453
H  -14.9661    1.1403    0.8972
H  -14.9738    1.0959   -0.8822
H  -16.2309   -1.0407   -0.8235
H  -16.2232   -0.9963    0.9559
H  -17.4645    1.1497    0.9078
H  -17.4722    1.1053   -0.8716
H  -18.7293   -1.0312   -0.8129
H  -18.7216   -0.9868    0.9665
H  -19.6108    0.2525    0.0492
